/*---------------------------------------------------------------------------*\
  =========                 |
  \\      /  F ield         | OpenFOAM: The Open Source CFD Toolbox
   \\    /   O peration     | Website:  https://openfoam.org
    \\  /    A nd           | Version:  7
     \\/     M anipulation  |
\*---------------------------------------------------------------------------*/
Build  : 7-3bcbaf946ae9
Exec   : simpleFoam
Date   : May 08 2023
Time   : 21:02:18
Host   : "kaj-HP-ZBook-Studio-G4"
PID    : 247580
I/O    : uncollated
Case   : /home/kaj/Documents/thesis/finalCases/rectDuct/AR_5_Ret_180/00Baseline/beta11
nProcs : 1
sigFpe : Enabling floating point exception trapping (FOAM_SIGFPE).
fileModificationChecking : Monitoring run-time modified files using timeStampMaster (fileModificationSkew 10)
allowSystemOperations : Allowing user-supplied system call operations

// * * * * * * * * * * * * * * * * * * * * * * * * * * * * * * * * * * * * * //
Create time

Using #calcEntry at line 4 in file "/home/kaj/Documents/thesis/finalCases/rectDuct/AR_5_Ret_180/00Baseline/beta11/system/controlDict.functions.convergenceProbes"
Using #codeStream with "/home/kaj/Documents/thesis/finalCases/rectDuct/AR_5_Ret_180/00Baseline/beta11/dynamicCode/platforms/linux64GccDPInt32Opt/lib/libcodeStream_e305d05308d1ade03f6eb88824101ddb2eba3278.so"
Creating new library in "dynamicCode/_e305d05308d1ade03f6eb88824101ddb2eba3278/platforms/linux64GccDPInt32Opt/lib/libcodeStream_e305d05308d1ade03f6eb88824101ddb2eba3278.so"
Invoking "wmake -s libso /home/kaj/Documents/thesis/finalCases/rectDuct/AR_5_Ret_180/00Baseline/beta11/dynamicCode/_e305d05308d1ade03f6eb88824101ddb2eba3278"
wmake libso /home/kaj/Documents/thesis/finalCases/rectDuct/AR_5_Ret_180/00Baseline/beta11/dynamicCode/_e305d05308d1ade03f6eb88824101ddb2eba3278
    wmkdep: codeStreamTemplate.C
    Ctoo: codeStreamTemplate.C
    ld: /home/kaj/Documents/thesis/finalCases/rectDuct/AR_5_Ret_180/00Baseline/beta11/dynamicCode/_e305d05308d1ade03f6eb88824101ddb2eba3278/../platforms/linux64GccDPInt32Opt/lib/libcodeStream_e305d05308d1ade03f6eb88824101ddb2eba3278.so
Using #calcEntry at line 5 in file "/home/kaj/Documents/thesis/finalCases/rectDuct/AR_5_Ret_180/00Baseline/beta11/system/controlDict.functions.convergenceProbes"
Using #codeStream with "/home/kaj/Documents/thesis/finalCases/rectDuct/AR_5_Ret_180/00Baseline/beta11/dynamicCode/platforms/linux64GccDPInt32Opt/lib/libcodeStream_8f3c4192690bcc53a34cf723aeeab9b62f638bd7.so"
Creating new library in "dynamicCode/_8f3c4192690bcc53a34cf723aeeab9b62f638bd7/platforms/linux64GccDPInt32Opt/lib/libcodeStream_8f3c4192690bcc53a34cf723aeeab9b62f638bd7.so"
Invoking "wmake -s libso /home/kaj/Documents/thesis/finalCases/rectDuct/AR_5_Ret_180/00Baseline/beta11/dynamicCode/_8f3c4192690bcc53a34cf723aeeab9b62f638bd7"
wmake libso /home/kaj/Documents/thesis/finalCases/rectDuct/AR_5_Ret_180/00Baseline/beta11/dynamicCode/_8f3c4192690bcc53a34cf723aeeab9b62f638bd7
    wmkdep: codeStreamTemplate.C
    Ctoo: codeStreamTemplate.C
    ld: /home/kaj/Documents/thesis/finalCases/rectDuct/AR_5_Ret_180/00Baseline/beta11/dynamicCode/_8f3c4192690bcc53a34cf723aeeab9b62f638bd7/../platforms/linux64GccDPInt32Opt/lib/libcodeStream_8f3c4192690bcc53a34cf723aeeab9b62f638bd7.so
Using #calcEntry at line 6 in file "/home/kaj/Documents/thesis/finalCases/rectDuct/AR_5_Ret_180/00Baseline/beta11/system/controlDict.functions.convergenceProbes"
Using #codeStream with "/home/kaj/Documents/thesis/finalCases/rectDuct/AR_5_Ret_180/00Baseline/beta11/dynamicCode/platforms/linux64GccDPInt32Opt/lib/libcodeStream_a2727cef0b180b3b2f6a19fffe5ff7cc3de40b59.so"
Creating new library in "dynamicCode/_a2727cef0b180b3b2f6a19fffe5ff7cc3de40b59/platforms/linux64GccDPInt32Opt/lib/libcodeStream_a2727cef0b180b3b2f6a19fffe5ff7cc3de40b59.so"
Invoking "wmake -s libso /home/kaj/Documents/thesis/finalCases/rectDuct/AR_5_Ret_180/00Baseline/beta11/dynamicCode/_a2727cef0b180b3b2f6a19fffe5ff7cc3de40b59"
wmake libso /home/kaj/Documents/thesis/finalCases/rectDuct/AR_5_Ret_180/00Baseline/beta11/dynamicCode/_a2727cef0b180b3b2f6a19fffe5ff7cc3de40b59
    wmkdep: codeStreamTemplate.C
    Ctoo: codeStreamTemplate.C
    ld: /home/kaj/Documents/thesis/finalCases/rectDuct/AR_5_Ret_180/00Baseline/beta11/dynamicCode/_a2727cef0b180b3b2f6a19fffe5ff7cc3de40b59/../platforms/linux64GccDPInt32Opt/lib/libcodeStream_a2727cef0b180b3b2f6a19fffe5ff7cc3de40b59.so
Using #calcEntry at line 7 in file "/home/kaj/Documents/thesis/finalCases/rectDuct/AR_5_Ret_180/00Baseline/beta11/system/controlDict.functions.convergenceProbes"
Using #codeStream with "/home/kaj/Documents/thesis/finalCases/rectDuct/AR_5_Ret_180/00Baseline/beta11/dynamicCode/platforms/linux64GccDPInt32Opt/lib/libcodeStream_7cee522725a33152b79f0a5194049f2dbce664c1.so"
Creating new library in "dynamicCode/_7cee522725a33152b79f0a5194049f2dbce664c1/platforms/linux64GccDPInt32Opt/lib/libcodeStream_7cee522725a33152b79f0a5194049f2dbce664c1.so"
Invoking "wmake -s libso /home/kaj/Documents/thesis/finalCases/rectDuct/AR_5_Ret_180/00Baseline/beta11/dynamicCode/_7cee522725a33152b79f0a5194049f2dbce664c1"
wmake libso /home/kaj/Documents/thesis/finalCases/rectDuct/AR_5_Ret_180/00Baseline/beta11/dynamicCode/_7cee522725a33152b79f0a5194049f2dbce664c1
    wmkdep: codeStreamTemplate.C
    Ctoo: codeStreamTemplate.C
    ld: /home/kaj/Documents/thesis/finalCases/rectDuct/AR_5_Ret_180/00Baseline/beta11/dynamicCode/_7cee522725a33152b79f0a5194049f2dbce664c1/../platforms/linux64GccDPInt32Opt/lib/libcodeStream_7cee522725a33152b79f0a5194049f2dbce664c1.so
Using #calcEntry at line 8 in file "/home/kaj/Documents/thesis/finalCases/rectDuct/AR_5_Ret_180/00Baseline/beta11/system/controlDict.functions.convergenceProbes"
Using #codeStream with "/home/kaj/Documents/thesis/finalCases/rectDuct/AR_5_Ret_180/00Baseline/beta11/dynamicCode/platforms/linux64GccDPInt32Opt/lib/libcodeStream_d2785449bcbe743d10f6a11c1f8672f6d3400c26.so"
Creating new library in "dynamicCode/_d2785449bcbe743d10f6a11c1f8672f6d3400c26/platforms/linux64GccDPInt32Opt/lib/libcodeStream_d2785449bcbe743d10f6a11c1f8672f6d3400c26.so"
Invoking "wmake -s libso /home/kaj/Documents/thesis/finalCases/rectDuct/AR_5_Ret_180/00Baseline/beta11/dynamicCode/_d2785449bcbe743d10f6a11c1f8672f6d3400c26"
wmake libso /home/kaj/Documents/thesis/finalCases/rectDuct/AR_5_Ret_180/00Baseline/beta11/dynamicCode/_d2785449bcbe743d10f6a11c1f8672f6d3400c26
    wmkdep: codeStreamTemplate.C
    Ctoo: codeStreamTemplate.C
    ld: /home/kaj/Documents/thesis/finalCases/rectDuct/AR_5_Ret_180/00Baseline/beta11/dynamicCode/_d2785449bcbe743d10f6a11c1f8672f6d3400c26/../platforms/linux64GccDPInt32Opt/lib/libcodeStream_d2785449bcbe743d10f6a11c1f8672f6d3400c26.so
Using #calcEntry at line 9 in file "/home/kaj/Documents/thesis/finalCases/rectDuct/AR_5_Ret_180/00Baseline/beta11/system/controlDict.functions.convergenceProbes"
Using #codeStream with "/home/kaj/Documents/thesis/finalCases/rectDuct/AR_5_Ret_180/00Baseline/beta11/dynamicCode/platforms/linux64GccDPInt32Opt/lib/libcodeStream_b02b17bcd7077dd523fa129a4fdcee4dca2473b8.so"
Creating new library in "dynamicCode/_b02b17bcd7077dd523fa129a4fdcee4dca2473b8/platforms/linux64GccDPInt32Opt/lib/libcodeStream_b02b17bcd7077dd523fa129a4fdcee4dca2473b8.so"
Invoking "wmake -s libso /home/kaj/Documents/thesis/finalCases/rectDuct/AR_5_Ret_180/00Baseline/beta11/dynamicCode/_b02b17bcd7077dd523fa129a4fdcee4dca2473b8"
wmake libso /home/kaj/Documents/thesis/finalCases/rectDuct/AR_5_Ret_180/00Baseline/beta11/dynamicCode/_b02b17bcd7077dd523fa129a4fdcee4dca2473b8
    wmkdep: codeStreamTemplate.C
    Ctoo: codeStreamTemplate.C
    ld: /home/kaj/Documents/thesis/finalCases/rectDuct/AR_5_Ret_180/00Baseline/beta11/dynamicCode/_b02b17bcd7077dd523fa129a4fdcee4dca2473b8/../platforms/linux64GccDPInt32Opt/lib/libcodeStream_b02b17bcd7077dd523fa129a4fdcee4dca2473b8.so
Create mesh for time = 0


SIMPLE: Convergence criteria found
        k: tolerance 5e-06
        omega: tolerance 1e-10

Reading field p

Reading field U

Using #calcEntry at line 19 in file "/home/kaj/Documents/thesis/finalCases/rectDuct/AR_5_Ret_180/00Baseline/beta11/0/U"
Using #codeStream with "/home/kaj/Documents/thesis/finalCases/rectDuct/AR_5_Ret_180/00Baseline/beta11/dynamicCode/platforms/linux64GccDPInt32Opt/lib/libcodeStream_629f034966e356c4c4eb727a033adb21ecba0944.so"
Creating new library in "dynamicCode/_629f034966e356c4c4eb727a033adb21ecba0944/platforms/linux64GccDPInt32Opt/lib/libcodeStream_629f034966e356c4c4eb727a033adb21ecba0944.so"
Invoking "wmake -s libso /home/kaj/Documents/thesis/finalCases/rectDuct/AR_5_Ret_180/00Baseline/beta11/dynamicCode/_629f034966e356c4c4eb727a033adb21ecba0944"
wmake libso /home/kaj/Documents/thesis/finalCases/rectDuct/AR_5_Ret_180/00Baseline/beta11/dynamicCode/_629f034966e356c4c4eb727a033adb21ecba0944
    wmkdep: codeStreamTemplate.C
    Ctoo: codeStreamTemplate.C
    ld: /home/kaj/Documents/thesis/finalCases/rectDuct/AR_5_Ret_180/00Baseline/beta11/dynamicCode/_629f034966e356c4c4eb727a033adb21ecba0944/../platforms/linux64GccDPInt32Opt/lib/libcodeStream_629f034966e356c4c4eb727a033adb21ecba0944.so
Reading/calculating face flux field phi

Selecting incompressible transport model Newtonian
Selecting turbulence model type RAS
Selecting RAS turbulence model kOmegaSST
Selecting patchDistMethod meshWave
bounding k, min: 0 max: 0.02 average: 0.02
RAS
{
    RASModel        kOmegaSST;
    turbulence      on;
    printCoeffs     on;
    alphaK1         0.85;
    alphaK2         1;
    alphaOmega1     0.5;
    alphaOmega2     0.856;
    gamma1          0.555556;
    gamma2          0.44;
    beta1           0.075;
    beta2           0.0828;
    betaStar        0.09;
    a1              0.31;
    b1              1;
    c1              10;
    F3              false;
}

No MRF models present

Creating finite volume options from "system/fvOptions"

Using #calcEntry at line 20 in file "/home/kaj/Documents/thesis/finalCases/rectDuct/AR_5_Ret_180/00Baseline/beta11/system/fvOptions"
Selecting finite volume options model type meanVelocityForce
    Source: meanVelocity1
    - selecting all cells
    - selected 11045 cell(s) with volume 5e-09
    Initial pressure gradient = 0


Starting time loop

Time = 1

DILUPBiCGStab:  Solving for Ux, Initial residual = 1, Final residual = 0.00922275, No Iterations 1
DILUPBiCGStab:  Solving for Uy, Initial residual = 0.975056, Final residual = 0.00324784, No Iterations 2
DILUPBiCGStab:  Solving for Uz, Initial residual = 0.971859, Final residual = 0.00274381, No Iterations 2
Pressure gradient source: uncorrected Ubar = 38.8723, pressure gradient = 36592
GAMG:  Solving for p, Initial residual = 0.392617, Final residual = 0.0366876, No Iterations 3
time step continuity errors : sum local = 6.58914e-14, global = -4.86137e-14, cumulative = -4.86137e-14
Pressure gradient source: uncorrected Ubar = 38.8789, pressure gradient = 5136.1
DILUPBiCGStab:  Solving for omega, Initial residual = 0.161645, Final residual = 0.00147732, No Iterations 1
DILUPBiCGStab:  Solving for k, Initial residual = 1, Final residual = 0.00919287, No Iterations 1
bounding k, min: 0 max: 0.0414419 average: 0.0216847
ExecutionTime = 0.23 s  ClockTime = 7 s

Time = 2

DILUPBiCGStab:  Solving for Ux, Initial residual = 0.639908, Final residual = 0.0015674, No Iterations 1
DILUPBiCGStab:  Solving for Uy, Initial residual = 0.913219, Final residual = 0.00706405, No Iterations 2
DILUPBiCGStab:  Solving for Uz, Initial residual = 0.854998, Final residual = 0.00447934, No Iterations 3
Pressure gradient source: uncorrected Ubar = 38.7913, pressure gradient = 57362.1
GAMG:  Solving for p, Initial residual = 0.76233, Final residual = 0.0621812, No Iterations 4
time step continuity errors : sum local = 2.20132e-12, global = -7.5183e-14, cumulative = -1.23797e-13
Pressure gradient source: uncorrected Ubar = 38.8699, pressure gradient = 11081
DILUPBiCGStab:  Solving for omega, Initial residual = 0.0564613, Final residual = 1.96188e-05, No Iterations 1
DILUPBiCGStab:  Solving for k, Initial residual = 0.545281, Final residual = 0.000753741, No Iterations 1
bounding k, min: 0 max: 0.0200615 average: 0.0179164
ExecutionTime = 0.3 s  ClockTime = 7 s

Time = 3

DILUPBiCGStab:  Solving for Ux, Initial residual = 0.0369344, Final residual = 0.00024945, No Iterations 2
DILUPBiCGStab:  Solving for Uy, Initial residual = 0.364567, Final residual = 0.00155652, No Iterations 3
DILUPBiCGStab:  Solving for Uz, Initial residual = 0.266403, Final residual = 0.00255388, No Iterations 3
Pressure gradient source: uncorrected Ubar = 39.2338, pressure gradient = -48448.5
GAMG:  Solving for p, Initial residual = 0.780756, Final residual = 0.0763524, No Iterations 3
time step continuity errors : sum local = 4.17235e-12, global = -5.70932e-14, cumulative = -1.8089e-13
Pressure gradient source: uncorrected Ubar = 38.9363, pressure gradient = 1599.75
DILUPBiCGStab:  Solving for omega, Initial residual = 0.00361176, Final residual = 3.06906e-06, No Iterations 1
DILUPBiCGStab:  Solving for k, Initial residual = 0.123358, Final residual = 0.000406121, No Iterations 1
bounding k, min: 0 max: 0.0200732 average: 0.0163093
ExecutionTime = 0.37 s  ClockTime = 7 s

Time = 4

DILUPBiCGStab:  Solving for Ux, Initial residual = 0.0162685, Final residual = 8.64725e-05, No Iterations 2
DILUPBiCGStab:  Solving for Uy, Initial residual = 0.181228, Final residual = 0.00120592, No Iterations 3
DILUPBiCGStab:  Solving for Uz, Initial residual = 0.231334, Final residual = 0.00116375, No Iterations 3
Pressure gradient source: uncorrected Ubar = 38.8452, pressure gradient = 6660.9
GAMG:  Solving for p, Initial residual = 0.797506, Final residual = 0.0527131, No Iterations 4
time step continuity errors : sum local = 2.60659e-12, global = -7.33347e-14, cumulative = -2.54225e-13
Pressure gradient source: uncorrected Ubar = 38.8805, pressure gradient = 1529.45
DILUPBiCGStab:  Solving for omega, Initial residual = 0.00130874, Final residual = 1.19081e-06, No Iterations 1
DILUPBiCGStab:  Solving for k, Initial residual = 0.0294207, Final residual = 0.000263172, No Iterations 1
bounding k, min: 0 max: 0.0201473 average: 0.0154155
ExecutionTime = 0.44 s  ClockTime = 7 s

Time = 5

DILUPBiCGStab:  Solving for Ux, Initial residual = 0.0105853, Final residual = 7.85244e-05, No Iterations 2
DILUPBiCGStab:  Solving for Uy, Initial residual = 0.254204, Final residual = 0.00152199, No Iterations 3
DILUPBiCGStab:  Solving for Uz, Initial residual = 0.275543, Final residual = 0.00175215, No Iterations 3
Pressure gradient source: uncorrected Ubar = 38.8481, pressure gradient = 5997.96
GAMG:  Solving for p, Initial residual = 0.787735, Final residual = 0.0533713, No Iterations 4
time step continuity errors : sum local = 2.06431e-12, global = -1.47037e-14, cumulative = -2.68928e-13
Pressure gradient source: uncorrected Ubar = 38.8806, pressure gradient = 1442.21
DILUPBiCGStab:  Solving for omega, Initial residual = 0.000448376, Final residual = 4.89829e-07, No Iterations 1
DILUPBiCGStab:  Solving for k, Initial residual = 0.0100306, Final residual = 2.00337e-05, No Iterations 1
bounding k, min: 0 max: 0.0202847 average: 0.0147699
ExecutionTime = 0.5 s  ClockTime = 7 s

Time = 6

DILUPBiCGStab:  Solving for Ux, Initial residual = 0.00863877, Final residual = 7.61536e-05, No Iterations 2
DILUPBiCGStab:  Solving for Uy, Initial residual = 0.350813, Final residual = 0.00206739, No Iterations 3
DILUPBiCGStab:  Solving for Uz, Initial residual = 0.33013, Final residual = 0.0018014, No Iterations 3
Pressure gradient source: uncorrected Ubar = 38.8452, pressure gradient = 6314.64
GAMG:  Solving for p, Initial residual = 0.747419, Final residual = 0.0652494, No Iterations 4
time step continuity errors : sum local = 2.17876e-12, global = -7.4399e-14, cumulative = -3.43327e-13
Pressure gradient source: uncorrected Ubar = 38.8798, pressure gradient = 1467.6
DILUPBiCGStab:  Solving for omega, Initial residual = 0.000181824, Final residual = 2.75361e-07, No Iterations 1
DILUPBiCGStab:  Solving for k, Initial residual = 0.00472208, Final residual = 1.91203e-05, No Iterations 1
bounding k, min: 0 max: 0.0206009 average: 0.0143247
ExecutionTime = 0.56 s  ClockTime = 7 s

Time = 7

DILUPBiCGStab:  Solving for Ux, Initial residual = 0.00797836, Final residual = 5.05933e-05, No Iterations 2
DILUPBiCGStab:  Solving for Uy, Initial residual = 0.570015, Final residual = 0.00320367, No Iterations 3
DILUPBiCGStab:  Solving for Uz, Initial residual = 0.44691, Final residual = 0.00320857, No Iterations 3
Pressure gradient source: uncorrected Ubar = 38.8621, pressure gradient = 3919.64
GAMG:  Solving for p, Initial residual = 0.74709, Final residual = 0.0680884, No Iterations 4
time step continuity errors : sum local = 1.77545e-12, global = -1.17241e-14, cumulative = -3.55051e-13
Pressure gradient source: uncorrected Ubar = 38.8801, pressure gradient = 1454.61
DILUPBiCGStab:  Solving for omega, Initial residual = 6.92731e-05, Final residual = 1.66798e-07, No Iterations 1
DILUPBiCGStab:  Solving for k, Initial residual = 0.00295102, Final residual = 2.18707e-05, No Iterations 1
bounding k, min: 0 max: 0.0210725 average: 0.0140182
ExecutionTime = 0.62 s  ClockTime = 7 s

Time = 8

DILUPBiCGStab:  Solving for Ux, Initial residual = 0.00801907, Final residual = 5.63378e-05, No Iterations 2
DILUPBiCGStab:  Solving for Uy, Initial residual = 0.33013, Final residual = 0.00190828, No Iterations 3
DILUPBiCGStab:  Solving for Uz, Initial residual = 0.485294, Final residual = 0.00427493, No Iterations 3
Pressure gradient source: uncorrected Ubar = 38.8585, pressure gradient = 4389.09
GAMG:  Solving for p, Initial residual = 0.652874, Final residual = 0.0545222, No Iterations 5
time step continuity errors : sum local = 1.25015e-12, global = 4.18451e-15, cumulative = -3.50867e-13
Pressure gradient source: uncorrected Ubar = 38.8795, pressure gradient = 1517.43
DILUPBiCGStab:  Solving for omega, Initial residual = 2.85316e-05, Final residual = 1.35457e-07, No Iterations 1
DILUPBiCGStab:  Solving for k, Initial residual = 0.00219214, Final residual = 8.63984e-06, No Iterations 2
bounding k, min: 0 max: 0.0217807 average: 0.0138174
ExecutionTime = 0.69 s  ClockTime = 7 s

Time = 9

DILUPBiCGStab:  Solving for Ux, Initial residual = 0.0081626, Final residual = 6.8019e-05, No Iterations 2
DILUPBiCGStab:  Solving for Uy, Initial residual = 0.345132, Final residual = 0.00264396, No Iterations 3
DILUPBiCGStab:  Solving for Uz, Initial residual = 0.49267, Final residual = 0.00472938, No Iterations 3
Pressure gradient source: uncorrected Ubar = 38.861, pressure gradient = 4054.1
GAMG:  Solving for p, Initial residual = 0.698125, Final residual = 0.0644378, No Iterations 4
time step continuity errors : sum local = 1.28546e-12, global = 3.57224e-15, cumulative = -3.47295e-13
Pressure gradient source: uncorrected Ubar = 38.88, pressure gradient = 1518.46
DILUPBiCGStab:  Solving for omega, Initial residual = 1.13561e-05, Final residual = 1.10034e-07, No Iterations 1
DILUPBiCGStab:  Solving for k, Initial residual = 0.00177004, Final residual = 1.45475e-05, No Iterations 2
bounding k, min: 0 max: 0.0227345 average: 0.0137036
ExecutionTime = 0.76 s  ClockTime = 7 s

Time = 10

DILUPBiCGStab:  Solving for Ux, Initial residual = 0.0081051, Final residual = 7.39002e-05, No Iterations 2
DILUPBiCGStab:  Solving for Uy, Initial residual = 0.427415, Final residual = 0.00332143, No Iterations 3
DILUPBiCGStab:  Solving for Uz, Initial residual = 0.410191, Final residual = 0.0036999, No Iterations 3
Pressure gradient source: uncorrected Ubar = 38.8581, pressure gradient = 4411.18
GAMG:  Solving for p, Initial residual = 0.696367, Final residual = 0.0664835, No Iterations 4
time step continuity errors : sum local = 1.13607e-12, global = -2.33714e-14, cumulative = -3.70666e-13
Pressure gradient source: uncorrected Ubar = 38.8796, pressure gradient = 1565.07
DILUPBiCGStab:  Solving for omega, Initial residual = 5.6161e-06, Final residual = 1.18498e-08, No Iterations 1
DILUPBiCGStab:  Solving for k, Initial residual = 0.00151378, Final residual = 3.44274e-06, No Iterations 2
bounding k, min: 0 max: 0.0239732 average: 0.013653
ExecutionTime = 0.82 s  ClockTime = 7 s

Time = 11

DILUPBiCGStab:  Solving for Ux, Initial residual = 0.00794651, Final residual = 4.61753e-05, No Iterations 3
DILUPBiCGStab:  Solving for Uy, Initial residual = 0.458097, Final residual = 0.00294998, No Iterations 3
DILUPBiCGStab:  Solving for Uz, Initial residual = 0.495909, Final residual = 0.00401981, No Iterations 3
Pressure gradient source: uncorrected Ubar = 38.8693, pressure gradient = 2964.97
GAMG:  Solving for p, Initial residual = 0.603878, Final residual = 0.0552517, No Iterations 5
time step continuity errors : sum local = 8.53099e-13, global = -8.25291e-14, cumulative = -4.53195e-13
Pressure gradient source: uncorrected Ubar = 38.8797, pressure gradient = 1598.98
DILUPBiCGStab:  Solving for omega, Initial residual = 2.65065e-06, Final residual = 1.03446e-08, No Iterations 1
DILUPBiCGStab:  Solving for k, Initial residual = 0.00136352, Final residual = 4.43798e-06, No Iterations 2
bounding k, min: 0 max: 0.0254099 average: 0.0136527
ExecutionTime = 0.89 s  ClockTime = 7 s

Time = 12

DILUPBiCGStab:  Solving for Ux, Initial residual = 0.0077416, Final residual = 5.05142e-05, No Iterations 3
DILUPBiCGStab:  Solving for Uy, Initial residual = 0.594806, Final residual = 0.00402623, No Iterations 3
DILUPBiCGStab:  Solving for Uz, Initial residual = 0.506553, Final residual = 0.00417729, No Iterations 3
Pressure gradient source: uncorrected Ubar = 38.8706, pressure gradient = 2804.34
GAMG:  Solving for p, Initial residual = 0.634161, Final residual = 0.0555515, No Iterations 5
time step continuity errors : sum local = 7.51148e-13, global = 7.60084e-14, cumulative = -3.77187e-13
Pressure gradient source: uncorrected Ubar = 38.88, pressure gradient = 1604.14
DILUPBiCGStab:  Solving for omega, Initial residual = 1.91548e-06, Final residual = 9.529e-09, No Iterations 1
DILUPBiCGStab:  Solving for k, Initial residual = 0.00128696, Final residual = 6.98549e-06, No Iterations 2
bounding k, min: 0 max: 0.0270822 average: 0.0137011
ExecutionTime = 0.95 s  ClockTime = 7 s

Time = 13

DILUPBiCGStab:  Solving for Ux, Initial residual = 0.00751883, Final residual = 5.17211e-05, No Iterations 3
DILUPBiCGStab:  Solving for Uy, Initial residual = 0.448507, Final residual = 0.00435827, No Iterations 3
DILUPBiCGStab:  Solving for Uz, Initial residual = 0.615101, Final residual = 0.00518527, No Iterations 3
Pressure gradient source: uncorrected Ubar = 38.8682, pressure gradient = 3099.29
GAMG:  Solving for p, Initial residual = 0.616457, Final residual = 0.0451767, No Iterations 5
time step continuity errors : sum local = 5.66276e-13, global = 2.71507e-14, cumulative = -3.50036e-13
Pressure gradient source: uncorrected Ubar = 38.8797, pressure gradient = 1641.41
DILUPBiCGStab:  Solving for omega, Initial residual = 1.26303e-06, Final residual = 8.55207e-09, No Iterations 1
DILUPBiCGStab:  Solving for k, Initial residual = 0.00126482, Final residual = 8.07196e-06, No Iterations 2
bounding k, min: 0 max: 0.0291379 average: 0.0137962
ExecutionTime = 1.02 s  ClockTime = 7 s

Time = 14

DILUPBiCGStab:  Solving for Ux, Initial residual = 0.00727591, Final residual = 5.23174e-05, No Iterations 3
DILUPBiCGStab:  Solving for Uy, Initial residual = 0.426445, Final residual = 0.00214563, No Iterations 4
DILUPBiCGStab:  Solving for Uz, Initial residual = 0.453038, Final residual = 0.003514, No Iterations 3
Pressure gradient source: uncorrected Ubar = 38.8674, pressure gradient = 3229.78
GAMG:  Solving for p, Initial residual = 0.597411, Final residual = 0.0595199, No Iterations 4
time step continuity errors : sum local = 8.10298e-13, global = -1.49505e-13, cumulative = -4.99541e-13
Pressure gradient source: uncorrected Ubar = 38.8796, pressure gradient = 1690.29
DILUPBiCGStab:  Solving for omega, Initial residual = 1.15419e-06, Final residual = 8.16589e-09, No Iterations 1
DILUPBiCGStab:  Solving for k, Initial residual = 0.00127983, Final residual = 9.48526e-06, No Iterations 2
bounding k, min: 0 max: 0.0314363 average: 0.0139368
ExecutionTime = 1.08 s  ClockTime = 7 s

Time = 15

DILUPBiCGStab:  Solving for Ux, Initial residual = 0.00700723, Final residual = 5.31351e-05, No Iterations 3
DILUPBiCGStab:  Solving for Uy, Initial residual = 0.4746, Final residual = 0.00410841, No Iterations 3
DILUPBiCGStab:  Solving for Uz, Initial residual = 0.387788, Final residual = 0.00257512, No Iterations 3
Pressure gradient source: uncorrected Ubar = 38.8679, pressure gradient = 3207.23
GAMG:  Solving for p, Initial residual = 0.587628, Final residual = 0.0481342, No Iterations 5
time step continuity errors : sum local = 4.1281e-13, global = 3.27732e-15, cumulative = -4.96264e-13
Pressure gradient source: uncorrected Ubar = 38.8797, pressure gradient = 1731.29
DILUPBiCGStab:  Solving for omega, Initial residual = 9.37178e-07, Final residual = 7.56672e-09, No Iterations 1
DILUPBiCGStab:  Solving for k, Initial residual = 0.00132243, Final residual = 1.20509e-05, No Iterations 2
bounding k, min: 0 max: 0.0341028 average: 0.0141218
ExecutionTime = 1.16 s  ClockTime = 8 s

Time = 16

DILUPBiCGStab:  Solving for Ux, Initial residual = 0.00672106, Final residual = 5.36314e-05, No Iterations 3
DILUPBiCGStab:  Solving for Uy, Initial residual = 0.602054, Final residual = 0.0032457, No Iterations 4
DILUPBiCGStab:  Solving for Uz, Initial residual = 0.462643, Final residual = 0.00228007, No Iterations 4
Pressure gradient source: uncorrected Ubar = 38.8681, pressure gradient = 3220.96
GAMG:  Solving for p, Initial residual = 0.536504, Final residual = 0.0474295, No Iterations 5
time step continuity errors : sum local = 5.19795e-13, global = 4.63614e-14, cumulative = -4.49903e-13
Pressure gradient source: uncorrected Ubar = 38.8797, pressure gradient = 1769.42
DILUPBiCGStab:  Solving for omega, Initial residual = 8.86032e-07, Final residual = 7.45582e-09, No Iterations 1
DILUPBiCGStab:  Solving for k, Initial residual = 0.0013818, Final residual = 3.63521e-06, No Iterations 3
bounding k, min: 0 max: 0.0371758 average: 0.0143535
ExecutionTime = 1.22 s  ClockTime = 8 s

Time = 17

DILUPBiCGStab:  Solving for Ux, Initial residual = 0.00643179, Final residual = 5.42327e-05, No Iterations 3
DILUPBiCGStab:  Solving for Uy, Initial residual = 0.617763, Final residual = 0.00323177, No Iterations 4
DILUPBiCGStab:  Solving for Uz, Initial residual = 0.466877, Final residual = 0.00226, No Iterations 4
Pressure gradient source: uncorrected Ubar = 38.8684, pressure gradient = 3212.6
GAMG:  Solving for p, Initial residual = 0.567965, Final residual = 0.038349, No Iterations 7
time step continuity errors : sum local = 3.34795e-13, global = -4.86582e-14, cumulative = -4.98561e-13
Pressure gradient source: uncorrected Ubar = 38.8797, pressure gradient = 1802.84
DILUPBiCGStab:  Solving for omega, Initial residual = 7.91848e-07, Final residual = 7.2412e-09, No Iterations 1
DILUPBiCGStab:  Solving for k, Initial residual = 0.00145634, Final residual = 4.20044e-06, No Iterations 3
bounding k, min: 0 max: 0.0405229 average: 0.0146299
ExecutionTime = 1.29 s  ClockTime = 8 s

Time = 18

DILUPBiCGStab:  Solving for Ux, Initial residual = 0.00615054, Final residual = 5.49952e-05, No Iterations 3
DILUPBiCGStab:  Solving for Uy, Initial residual = 0.420411, Final residual = 0.00186594, No Iterations 4
DILUPBiCGStab:  Solving for Uz, Initial residual = 0.557182, Final residual = 0.00283375, No Iterations 4
Pressure gradient source: uncorrected Ubar = 38.8688, pressure gradient = 3189.04
GAMG:  Solving for p, Initial residual = 0.516253, Final residual = 0.0488044, No Iterations 5
time step continuity errors : sum local = 4.46845e-13, global = 3.73973e-14, cumulative = -4.61163e-13
Pressure gradient source: uncorrected Ubar = 38.8798, pressure gradient = 1828.95
DILUPBiCGStab:  Solving for omega, Initial residual = 7.30851e-07, Final residual = 7.15289e-09, No Iterations 1
DILUPBiCGStab:  Solving for k, Initial residual = 0.00154141, Final residual = 4.72422e-06, No Iterations 3
bounding k, min: 0 max: 0.0443853 average: 0.0149514
ExecutionTime = 1.37 s  ClockTime = 8 s

Time = 19

DILUPBiCGStab:  Solving for Ux, Initial residual = 0.00587774, Final residual = 5.44528e-05, No Iterations 3
DILUPBiCGStab:  Solving for Uy, Initial residual = 0.454789, Final residual = 0.00211202, No Iterations 4
DILUPBiCGStab:  Solving for Uz, Initial residual = 0.304651, Final residual = 0.00216988, No Iterations 4
Pressure gradient source: uncorrected Ubar = 38.8678, pressure gradient = 3341.85
GAMG:  Solving for p, Initial residual = 0.512671, Final residual = 0.043576, No Iterations 6
time step continuity errors : sum local = 4.16198e-13, global = 3.749e-14, cumulative = -4.23673e-13
Pressure gradient source: uncorrected Ubar = 38.8796, pressure gradient = 1872.85
DILUPBiCGStab:  Solving for omega, Initial residual = 6.69818e-07, Final residual = 2.13256e-09, No Iterations 2
DILUPBiCGStab:  Solving for k, Initial residual = 0.00161647, Final residual = 5.19672e-06, No Iterations 3
bounding k, min: 0 max: 0.048469 average: 0.0153123
ExecutionTime = 1.44 s  ClockTime = 8 s

Time = 20

DILUPBiCGStab:  Solving for Ux, Initial residual = 0.00562337, Final residual = 5.44017e-05, No Iterations 3
DILUPBiCGStab:  Solving for Uy, Initial residual = 0.546714, Final residual = 0.00265219, No Iterations 4
DILUPBiCGStab:  Solving for Uz, Initial residual = 0.6219, Final residual = 0.00441992, No Iterations 4
Pressure gradient source: uncorrected Ubar = 38.8685, pressure gradient = 3297.77
GAMG:  Solving for p, Initial residual = 0.511285, Final residual = 0.047876, No Iterations 7
time step continuity errors : sum local = 3.36208e-13, global = -1.76325e-14, cumulative = -4.41306e-13
Pressure gradient source: uncorrected Ubar = 38.8797, pressure gradient = 1907.69
DILUPBiCGStab:  Solving for omega, Initial residual = 6.18587e-07, Final residual = 2.17524e-09, No Iterations 2
DILUPBiCGStab:  Solving for k, Initial residual = 0.00169503, Final residual = 5.83556e-06, No Iterations 3
bounding k, min: 0 max: 0.0527021 average: 0.0157122
ExecutionTime = 1.51 s  ClockTime = 8 s

Time = 21

DILUPBiCGStab:  Solving for Ux, Initial residual = 0.00538208, Final residual = 5.34538e-05, No Iterations 3
DILUPBiCGStab:  Solving for Uy, Initial residual = 0.425565, Final residual = 0.00218316, No Iterations 4
DILUPBiCGStab:  Solving for Uz, Initial residual = 0.529475, Final residual = 0.00352203, No Iterations 4
Pressure gradient source: uncorrected Ubar = 38.8682, pressure gradient = 3372.85
GAMG:  Solving for p, Initial residual = 0.462452, Final residual = 0.0382448, No Iterations 5
time step continuity errors : sum local = 2.6691e-13, global = -1.20315e-14, cumulative = -4.53337e-13
Pressure gradient source: uncorrected Ubar = 38.8796, pressure gradient = 1952.02
DILUPBiCGStab:  Solving for omega, Initial residual = 5.73757e-07, Final residual = 2.21371e-09, No Iterations 2
DILUPBiCGStab:  Solving for k, Initial residual = 0.00177535, Final residual = 6.7347e-06, No Iterations 3
bounding k, min: 0 max: 0.0572441 average: 0.0161512
ExecutionTime = 1.59 s  ClockTime = 8 s

Time = 22

DILUPBiCGStab:  Solving for Ux, Initial residual = 0.00515932, Final residual = 2.63228e-05, No Iterations 3
DILUPBiCGStab:  Solving for Uy, Initial residual = 0.390735, Final residual = 0.00187015, No Iterations 4
DILUPBiCGStab:  Solving for Uz, Initial residual = 0.421325, Final residual = 0.00312233, No Iterations 4
Pressure gradient source: uncorrected Ubar = 38.8712, pressure gradient = 3047.29
GAMG:  Solving for p, Initial residual = 0.484068, Final residual = 0.0363778, No Iterations 6
time step continuity errors : sum local = 3.36403e-13, global = 9.87874e-14, cumulative = -3.5455e-13
Pressure gradient source: uncorrected Ubar = 38.8797, pressure gradient = 1985.35
DILUPBiCGStab:  Solving for omega, Initial residual = 5.34176e-07, Final residual = 2.24108e-09, No Iterations 2
DILUPBiCGStab:  Solving for k, Initial residual = 0.0018574, Final residual = 7.60945e-06, No Iterations 3
bounding k, min: 0 max: 0.0621984 average: 0.0166292
ExecutionTime = 1.66 s  ClockTime = 8 s

Time = 23

DILUPBiCGStab:  Solving for Ux, Initial residual = 0.00495724, Final residual = 2.73577e-05, No Iterations 3
DILUPBiCGStab:  Solving for Uy, Initial residual = 0.439138, Final residual = 0.00211512, No Iterations 4
DILUPBiCGStab:  Solving for Uz, Initial residual = 0.452171, Final residual = 0.00367419, No Iterations 4
Pressure gradient source: uncorrected Ubar = 38.8736, pressure gradient = 2765.55
GAMG:  Solving for p, Initial residual = 0.452556, Final residual = 0.0370091, No Iterations 5
time step continuity errors : sum local = 3.14293e-13, global = 7.40287e-14, cumulative = -2.80521e-13
Pressure gradient source: uncorrected Ubar = 38.88, pressure gradient = 1981.15
DILUPBiCGStab:  Solving for omega, Initial residual = 4.98743e-07, Final residual = 2.25792e-09, No Iterations 2
DILUPBiCGStab:  Solving for k, Initial residual = 0.00194363, Final residual = 8.4713e-06, No Iterations 3
bounding k, min: 0 max: 0.0674128 average: 0.017148
ExecutionTime = 1.74 s  ClockTime = 8 s

Time = 24

DILUPBiCGStab:  Solving for Ux, Initial residual = 0.00475943, Final residual = 2.73554e-05, No Iterations 3
DILUPBiCGStab:  Solving for Uy, Initial residual = 0.435834, Final residual = 0.00267265, No Iterations 4
DILUPBiCGStab:  Solving for Uz, Initial residual = 0.403186, Final residual = 0.00277321, No Iterations 4
Pressure gradient source: uncorrected Ubar = 38.8716, pressure gradient = 3005.15
GAMG:  Solving for p, Initial residual = 0.461779, Final residual = 0.0398312, No Iterations 7
time step continuity errors : sum local = 3.26647e-13, global = 3.90098e-14, cumulative = -2.41511e-13
Pressure gradient source: uncorrected Ubar = 38.8798, pressure gradient = 2005.97
DILUPBiCGStab:  Solving for omega, Initial residual = 4.667e-07, Final residual = 2.27803e-09, No Iterations 2
DILUPBiCGStab:  Solving for k, Initial residual = 0.00203738, Final residual = 9.44787e-06, No Iterations 3
bounding k, min: 0 max: 0.0729364 average: 0.0177112
ExecutionTime = 1.81 s  ClockTime = 8 s

Time = 25

DILUPBiCGStab:  Solving for Ux, Initial residual = 0.00458344, Final residual = 2.84713e-05, No Iterations 3
DILUPBiCGStab:  Solving for Uy, Initial residual = 0.489162, Final residual = 0.0035996, No Iterations 4
DILUPBiCGStab:  Solving for Uz, Initial residual = 0.550247, Final residual = 0.00386499, No Iterations 4
Pressure gradient source: uncorrected Ubar = 38.874, pressure gradient = 2730.98
GAMG:  Solving for p, Initial residual = 0.418674, Final residual = 0.0265493, No Iterations 7
time step continuity errors : sum local = 1.58457e-13, global = 3.77619e-14, cumulative = -2.03749e-13
Pressure gradient source: uncorrected Ubar = 38.8801, pressure gradient = 1994.81
DILUPBiCGStab:  Solving for omega, Initial residual = 4.37518e-07, Final residual = 2.29876e-09, No Iterations 2
DILUPBiCGStab:  Solving for k, Initial residual = 0.00213423, Final residual = 1.03946e-05, No Iterations 3
bounding k, min: 0 max: 0.0788261 average: 0.0183214
ExecutionTime = 1.87 s  ClockTime = 8 s

Time = 26

DILUPBiCGStab:  Solving for Ux, Initial residual = 0.00440721, Final residual = 2.7369e-05, No Iterations 3
DILUPBiCGStab:  Solving for Uy, Initial residual = 0.404119, Final residual = 0.00253571, No Iterations 4
DILUPBiCGStab:  Solving for Uz, Initial residual = 0.314764, Final residual = 0.0010836, No Iterations 4
Pressure gradient source: uncorrected Ubar = 38.8704, pressure gradient = 3160.39
GAMG:  Solving for p, Initial residual = 0.434696, Final residual = 0.0310823, No Iterations 5
time step continuity errors : sum local = 2.01416e-13, global = -3.06283e-14, cumulative = -2.34378e-13
Pressure gradient source: uncorrected Ubar = 38.8796, pressure gradient = 2038.91
DILUPBiCGStab:  Solving for omega, Initial residual = 4.11324e-07, Final residual = 2.31083e-09, No Iterations 2
DILUPBiCGStab:  Solving for k, Initial residual = 0.00224043, Final residual = 1.10073e-05, No Iterations 3
bounding k, min: 0 max: 0.0852293 average: 0.0189827
ExecutionTime = 1.94 s  ClockTime = 8 s

Time = 27

DILUPBiCGStab:  Solving for Ux, Initial residual = 0.00424966, Final residual = 2.70355e-05, No Iterations 3
DILUPBiCGStab:  Solving for Uy, Initial residual = 0.44584, Final residual = 0.0024499, No Iterations 4
DILUPBiCGStab:  Solving for Uz, Initial residual = 0.266341, Final residual = 0.00261999, No Iterations 4
Pressure gradient source: uncorrected Ubar = 38.8719, pressure gradient = 3023.22
GAMG:  Solving for p, Initial residual = 0.384556, Final residual = 0.0238159, No Iterations 6
time step continuity errors : sum local = 1.73879e-13, global = -5.226e-14, cumulative = -2.86638e-13
Pressure gradient source: uncorrected Ubar = 38.8798, pressure gradient = 2065.69
DILUPBiCGStab:  Solving for omega, Initial residual = 3.87668e-07, Final residual = 2.31591e-09, No Iterations 2
DILUPBiCGStab:  Solving for k, Initial residual = 0.00236124, Final residual = 1.14604e-05, No Iterations 3
bounding k, min: 0 max: 0.0925562 average: 0.019701
ExecutionTime = 2.02 s  ClockTime = 8 s

Time = 28

DILUPBiCGStab:  Solving for Ux, Initial residual = 0.00410117, Final residual = 2.68791e-05, No Iterations 3
DILUPBiCGStab:  Solving for Uy, Initial residual = 0.341888, Final residual = 0.00299848, No Iterations 3
DILUPBiCGStab:  Solving for Uz, Initial residual = 0.302593, Final residual = 0.00257694, No Iterations 4
Pressure gradient source: uncorrected Ubar = 38.8727, pressure gradient = 2951.49
GAMG:  Solving for p, Initial residual = 0.404689, Final residual = 0.0305234, No Iterations 5
time step continuity errors : sum local = 2.11703e-13, global = 7.35113e-14, cumulative = -2.13127e-13
Pressure gradient source: uncorrected Ubar = 38.8799, pressure gradient = 2083.69
DILUPBiCGStab:  Solving for omega, Initial residual = 3.66035e-07, Final residual = 2.31821e-09, No Iterations 2
DILUPBiCGStab:  Solving for k, Initial residual = 0.00250217, Final residual = 1.21456e-05, No Iterations 3
bounding k, min: 0 max: 0.100937 average: 0.0204864
ExecutionTime = 2.09 s  ClockTime = 8 s

Time = 29

DILUPBiCGStab:  Solving for Ux, Initial residual = 0.00396134, Final residual = 2.67007e-05, No Iterations 3
DILUPBiCGStab:  Solving for Uy, Initial residual = 0.418946, Final residual = 0.00236498, No Iterations 4
DILUPBiCGStab:  Solving for Uz, Initial residual = 0.297018, Final residual = 0.00190629, No Iterations 4
Pressure gradient source: uncorrected Ubar = 38.873, pressure gradient = 2929.61
GAMG:  Solving for p, Initial residual = 0.402998, Final residual = 0.022723, No Iterations 5
time step continuity errors : sum local = 1.96088e-13, global = 8.86342e-14, cumulative = -1.24492e-13
Pressure gradient source: uncorrected Ubar = 38.8799, pressure gradient = 2099
DILUPBiCGStab:  Solving for omega, Initial residual = 3.46124e-07, Final residual = 2.3183e-09, No Iterations 2
DILUPBiCGStab:  Solving for k, Initial residual = 0.00267621, Final residual = 1.29006e-05, No Iterations 3
bounding k, min: 0 max: 0.110894 average: 0.0213531
ExecutionTime = 2.15 s  ClockTime = 9 s

Time = 30

DILUPBiCGStab:  Solving for Ux, Initial residual = 0.00382988, Final residual = 2.67687e-05, No Iterations 3
DILUPBiCGStab:  Solving for Uy, Initial residual = 0.372121, Final residual = 0.00216912, No Iterations 4
DILUPBiCGStab:  Solving for Uz, Initial residual = 0.310822, Final residual = 0.00147582, No Iterations 4
Pressure gradient source: uncorrected Ubar = 38.8736, pressure gradient = 2869.88
GAMG:  Solving for p, Initial residual = 0.39018, Final residual = 0.0285995, No Iterations 5
time step continuity errors : sum local = 2.08544e-13, global = 5.08314e-14, cumulative = -7.36609e-14
Pressure gradient source: uncorrected Ubar = 38.8799, pressure gradient = 2107.21
DILUPBiCGStab:  Solving for omega, Initial residual = 3.28192e-07, Final residual = 2.29837e-09, No Iterations 2
DILUPBiCGStab:  Solving for k, Initial residual = 0.00289721, Final residual = 1.39274e-05, No Iterations 3
bounding k, min: 0 max: 0.123165 average: 0.0223226
ExecutionTime = 2.23 s  ClockTime = 9 s

Time = 31

DILUPBiCGStab:  Solving for Ux, Initial residual = 0.00370422, Final residual = 2.66441e-05, No Iterations 3
DILUPBiCGStab:  Solving for Uy, Initial residual = 0.370781, Final residual = 0.0036937, No Iterations 4
DILUPBiCGStab:  Solving for Uz, Initial residual = 0.378272, Final residual = 0.0016022, No Iterations 4
Pressure gradient source: uncorrected Ubar = 38.8735, pressure gradient = 2892.44
GAMG:  Solving for p, Initial residual = 0.388665, Final residual = 0.0230641, No Iterations 5
time step continuity errors : sum local = 1.82383e-13, global = -9.2791e-14, cumulative = -1.66452e-13
Pressure gradient source: uncorrected Ubar = 38.8799, pressure gradient = 2118.78
DILUPBiCGStab:  Solving for omega, Initial residual = 3.11374e-07, Final residual = 2.24708e-09, No Iterations 2
DILUPBiCGStab:  Solving for k, Initial residual = 0.00318478, Final residual = 1.51659e-05, No Iterations 3
bounding k, min: 0 max: 0.138764 average: 0.0234249
ExecutionTime = 2.29 s  ClockTime = 9 s

Time = 32

DILUPBiCGStab:  Solving for Ux, Initial residual = 0.00358614, Final residual = 2.65219e-05, No Iterations 3
DILUPBiCGStab:  Solving for Uy, Initial residual = 0.366489, Final residual = 0.00216453, No Iterations 4
DILUPBiCGStab:  Solving for Uz, Initial residual = 0.427299, Final residual = 0.00330943, No Iterations 4
Pressure gradient source: uncorrected Ubar = 38.8737, pressure gradient = 2872.03
GAMG:  Solving for p, Initial residual = 0.405873, Final residual = 0.0356096, No Iterations 5
time step continuity errors : sum local = 1.94059e-13, global = -5.24338e-14, cumulative = -2.18886e-13
Pressure gradient source: uncorrected Ubar = 38.8799, pressure gradient = 2128.35
DILUPBiCGStab:  Solving for omega, Initial residual = 2.95582e-07, Final residual = 2.17311e-09, No Iterations 2
DILUPBiCGStab:  Solving for k, Initial residual = 0.00355641, Final residual = 1.65674e-05, No Iterations 3
bounding k, min: 0 max: 0.159 average: 0.024702
ExecutionTime = 2.36 s  ClockTime = 9 s

Time = 33

DILUPBiCGStab:  Solving for Ux, Initial residual = 0.00347436, Final residual = 2.64421e-05, No Iterations 3
DILUPBiCGStab:  Solving for Uy, Initial residual = 0.395879, Final residual = 0.00254807, No Iterations 4
DILUPBiCGStab:  Solving for Uz, Initial residual = 0.340119, Final residual = 0.00278327, No Iterations 4
Pressure gradient source: uncorrected Ubar = 38.874, pressure gradient = 2848.61
GAMG:  Solving for p, Initial residual = 0.405384, Final residual = 0.0395415, No Iterations 4
time step continuity errors : sum local = 2.93824e-13, global = 7.51644e-14, cumulative = -1.43721e-13
Pressure gradient source: uncorrected Ubar = 38.8799, pressure gradient = 2135.5
DILUPBiCGStab:  Solving for omega, Initial residual = 2.81329e-07, Final residual = 2.09173e-09, No Iterations 2
DILUPBiCGStab:  Solving for k, Initial residual = 0.00401658, Final residual = 1.80818e-05, No Iterations 3
bounding k, min: 0 max: 0.184351 average: 0.026206
ExecutionTime = 2.44 s  ClockTime = 9 s

Time = 34

DILUPBiCGStab:  Solving for Ux, Initial residual = 0.0033678, Final residual = 2.63476e-05, No Iterations 3
DILUPBiCGStab:  Solving for Uy, Initial residual = 0.425986, Final residual = 0.00297601, No Iterations 4
DILUPBiCGStab:  Solving for Uz, Initial residual = 0.367053, Final residual = 0.00352636, No Iterations 4
Pressure gradient source: uncorrected Ubar = 38.8741, pressure gradient = 2839.14
GAMG:  Solving for p, Initial residual = 0.414032, Final residual = 0.0399065, No Iterations 4
time step continuity errors : sum local = 2.20208e-13, global = 4.52188e-15, cumulative = -1.39199e-13
Pressure gradient source: uncorrected Ubar = 38.8799, pressure gradient = 2142
DILUPBiCGStab:  Solving for omega, Initial residual = 2.6794e-07, Final residual = 2.0239e-09, No Iterations 2
DILUPBiCGStab:  Solving for k, Initial residual = 0.00451448, Final residual = 1.96782e-05, No Iterations 3
bounding k, min: 0 max: 0.214833 average: 0.0279846
ExecutionTime = 2.5 s  ClockTime = 9 s

Time = 35

DILUPBiCGStab:  Solving for Ux, Initial residual = 0.00326609, Final residual = 2.62552e-05, No Iterations 3
DILUPBiCGStab:  Solving for Uy, Initial residual = 0.322276, Final residual = 0.00243564, No Iterations 4
DILUPBiCGStab:  Solving for Uz, Initial residual = 0.338335, Final residual = 0.00288405, No Iterations 4
Pressure gradient source: uncorrected Ubar = 38.8742, pressure gradient = 2829.11
GAMG:  Solving for p, Initial residual = 0.416797, Final residual = 0.0247119, No Iterations 5
time step continuity errors : sum local = 1.30393e-13, global = 2.25083e-14, cumulative = -1.16691e-13
Pressure gradient source: uncorrected Ubar = 38.88, pressure gradient = 2147.79
DILUPBiCGStab:  Solving for omega, Initial residual = 2.5539e-07, Final residual = 1.99827e-09, No Iterations 2
DILUPBiCGStab:  Solving for k, Initial residual = 0.0050527, Final residual = 2.14413e-05, No Iterations 3
bounding k, min: 0 max: 0.251686 average: 0.0300949
ExecutionTime = 2.57 s  ClockTime = 9 s

Time = 36

DILUPBiCGStab:  Solving for Ux, Initial residual = 0.00316899, Final residual = 2.60879e-05, No Iterations 3
DILUPBiCGStab:  Solving for Uy, Initial residual = 0.399182, Final residual = 0.00293983, No Iterations 4
DILUPBiCGStab:  Solving for Uz, Initial residual = 0.442481, Final residual = 0.00326156, No Iterations 4
Pressure gradient source: uncorrected Ubar = 38.8742, pressure gradient = 2833.94
GAMG:  Solving for p, Initial residual = 0.424242, Final residual = 0.0242411, No Iterations 5
time step continuity errors : sum local = 1.42051e-13, global = -9.17945e-15, cumulative = -1.25871e-13
Pressure gradient source: uncorrected Ubar = 38.8799, pressure gradient = 2154.8
DILUPBiCGStab:  Solving for omega, Initial residual = 2.4393e-07, Final residual = 1.98109e-09, No Iterations 2
DILUPBiCGStab:  Solving for k, Initial residual = 0.00562957, Final residual = 2.32884e-05, No Iterations 3
bounding k, min: 0 max: 0.296321 average: 0.0326058
ExecutionTime = 2.64 s  ClockTime = 9 s

Time = 37

DILUPBiCGStab:  Solving for Ux, Initial residual = 0.00307542, Final residual = 2.57832e-05, No Iterations 3
DILUPBiCGStab:  Solving for Uy, Initial residual = 0.435967, Final residual = 0.00350037, No Iterations 4
DILUPBiCGStab:  Solving for Uz, Initial residual = 0.27489, Final residual = 0.00231535, No Iterations 4
Pressure gradient source: uncorrected Ubar = 38.8742, pressure gradient = 2850.98
GAMG:  Solving for p, Initial residual = 0.394875, Final residual = 0.0322287, No Iterations 4
time step continuity errors : sum local = 1.6836e-13, global = 3.0009e-14, cumulative = -9.58615e-14
Pressure gradient source: uncorrected Ubar = 38.8799, pressure gradient = 2164.56
DILUPBiCGStab:  Solving for omega, Initial residual = 2.33293e-07, Final residual = 1.97215e-09, No Iterations 2
DILUPBiCGStab:  Solving for k, Initial residual = 0.00624858, Final residual = 2.52069e-05, No Iterations 3
bounding k, min: 0 max: 0.350389 average: 0.0356029
ExecutionTime = 2.71 s  ClockTime = 9 s

Time = 38

DILUPBiCGStab:  Solving for Ux, Initial residual = 0.00298496, Final residual = 2.53481e-05, No Iterations 3
DILUPBiCGStab:  Solving for Uy, Initial residual = 0.401313, Final residual = 0.0027394, No Iterations 4
DILUPBiCGStab:  Solving for Uz, Initial residual = 0.224401, Final residual = 0.00114378, No Iterations 4
Pressure gradient source: uncorrected Ubar = 38.8741, pressure gradient = 2867.92
GAMG:  Solving for p, Initial residual = 0.3853, Final residual = 0.0354174, No Iterations 5
time step continuity errors : sum local = 1.62894e-13, global = 8.05719e-15, cumulative = -8.78043e-14
Pressure gradient source: uncorrected Ubar = 38.8799, pressure gradient = 2177.12
DILUPBiCGStab:  Solving for omega, Initial residual = 2.23248e-07, Final residual = 1.97512e-09, No Iterations 2
DILUPBiCGStab:  Solving for k, Initial residual = 0.00690039, Final residual = 6.69223e-05, No Iterations 2
bounding k, min: 0 max: 0.415853 average: 0.0391711
ExecutionTime = 2.79 s  ClockTime = 9 s

Time = 39

DILUPBiCGStab:  Solving for Ux, Initial residual = 0.0028978, Final residual = 2.48062e-05, No Iterations 3
DILUPBiCGStab:  Solving for Uy, Initial residual = 0.363239, Final residual = 0.0024277, No Iterations 4
DILUPBiCGStab:  Solving for Uz, Initial residual = 0.40226, Final residual = 0.00247826, No Iterations 4
Pressure gradient source: uncorrected Ubar = 38.8741, pressure gradient = 2878.77
GAMG:  Solving for p, Initial residual = 0.419974, Final residual = 0.0299073, No Iterations 5
time step continuity errors : sum local = 1.85103e-13, global = -1.06757e-14, cumulative = -9.848e-14
Pressure gradient source: uncorrected Ubar = 38.8799, pressure gradient = 2191.75
DILUPBiCGStab:  Solving for omega, Initial residual = 2.13875e-07, Final residual = 1.98927e-09, No Iterations 2
DILUPBiCGStab:  Solving for k, Initial residual = 0.00755593, Final residual = 7.02755e-05, No Iterations 2
bounding k, min: 0 max: 0.494705 average: 0.0434363
ExecutionTime = 2.85 s  ClockTime = 9 s

Time = 40

DILUPBiCGStab:  Solving for Ux, Initial residual = 0.00281335, Final residual = 2.41745e-05, No Iterations 3
DILUPBiCGStab:  Solving for Uy, Initial residual = 0.405187, Final residual = 0.00307698, No Iterations 4
DILUPBiCGStab:  Solving for Uz, Initial residual = 0.336136, Final residual = 0.0018375, No Iterations 4
Pressure gradient source: uncorrected Ubar = 38.8742, pressure gradient = 2890.68
GAMG:  Solving for p, Initial residual = 0.410543, Final residual = 0.0408037, No Iterations 4
time step continuity errors : sum local = 2.14576e-13, global = -4.06655e-14, cumulative = -1.39146e-13
Pressure gradient source: uncorrected Ubar = 38.8799, pressure gradient = 2208.56
DILUPBiCGStab:  Solving for omega, Initial residual = 2.05187e-07, Final residual = 2.01033e-09, No Iterations 2
DILUPBiCGStab:  Solving for k, Initial residual = 0.00819685, Final residual = 7.32405e-05, No Iterations 2
bounding k, min: 0 max: 0.589171 average: 0.0485255
ExecutionTime = 2.93 s  ClockTime = 9 s

Time = 41

DILUPBiCGStab:  Solving for Ux, Initial residual = 0.00273135, Final residual = 2.34599e-05, No Iterations 3
DILUPBiCGStab:  Solving for Uy, Initial residual = 0.433095, Final residual = 0.00333953, No Iterations 4
DILUPBiCGStab:  Solving for Uz, Initial residual = 0.234226, Final residual = 0.00216111, No Iterations 4
Pressure gradient source: uncorrected Ubar = 38.8743, pressure gradient = 2903.84
GAMG:  Solving for p, Initial residual = 0.410164, Final residual = 0.0404103, No Iterations 4
time step continuity errors : sum local = 2.74724e-13, global = -7.20371e-14, cumulative = -2.11183e-13
Pressure gradient source: uncorrected Ubar = 38.8798, pressure gradient = 2227.67
DILUPBiCGStab:  Solving for omega, Initial residual = 1.96913e-07, Final residual = 6.53787e-10, No Iterations 2
DILUPBiCGStab:  Solving for k, Initial residual = 0.00880151, Final residual = 7.59165e-05, No Iterations 2
bounding k, min: 0 max: 0.701683 average: 0.0545767
ExecutionTime = 2.99 s  ClockTime = 9 s

Time = 42

DILUPBiCGStab:  Solving for Ux, Initial residual = 0.00265202, Final residual = 2.26469e-05, No Iterations 3
DILUPBiCGStab:  Solving for Uy, Initial residual = 0.414186, Final residual = 0.00295185, No Iterations 4
DILUPBiCGStab:  Solving for Uz, Initial residual = 0.245657, Final residual = 0.00204342, No Iterations 4
Pressure gradient source: uncorrected Ubar = 38.8744, pressure gradient = 2917.5
GAMG:  Solving for p, Initial residual = 0.393819, Final residual = 0.0173775, No Iterations 5
time step continuity errors : sum local = 1.37304e-13, global = -5.74906e-14, cumulative = -2.68673e-13
Pressure gradient source: uncorrected Ubar = 38.8798, pressure gradient = 2249.04
DILUPBiCGStab:  Solving for omega, Initial residual = 1.8892e-07, Final residual = 6.38938e-10, No Iterations 2
DILUPBiCGStab:  Solving for k, Initial residual = 0.00935017, Final residual = 7.83651e-05, No Iterations 2
bounding k, min: 0 max: 0.833373 average: 0.0617415
ExecutionTime = 3.06 s  ClockTime = 9 s

Time = 43

DILUPBiCGStab:  Solving for Ux, Initial residual = 0.00257444, Final residual = 2.17219e-05, No Iterations 3
DILUPBiCGStab:  Solving for Uy, Initial residual = 0.347898, Final residual = 0.00296236, No Iterations 4
DILUPBiCGStab:  Solving for Uz, Initial residual = 0.300363, Final residual = 0.00204118, No Iterations 4
Pressure gradient source: uncorrected Ubar = 38.8744, pressure gradient = 2939.51
GAMG:  Solving for p, Initial residual = 0.37593, Final residual = 0.0287301, No Iterations 6
time step continuity errors : sum local = 2.66832e-13, global = -1.16949e-13, cumulative = -3.85622e-13
Pressure gradient source: uncorrected Ubar = 38.8798, pressure gradient = 2273.57
DILUPBiCGStab:  Solving for omega, Initial residual = 1.81415e-07, Final residual = 6.23394e-10, No Iterations 2
DILUPBiCGStab:  Solving for k, Initial residual = 0.00985915, Final residual = 8.06247e-05, No Iterations 2
bounding k, min: 0 max: 0.986512 average: 0.0702017
ExecutionTime = 3.13 s  ClockTime = 9 s

Time = 44

DILUPBiCGStab:  Solving for Ux, Initial residual = 0.00249876, Final residual = 2.07063e-05, No Iterations 3
DILUPBiCGStab:  Solving for Uy, Initial residual = 0.424671, Final residual = 0.00366727, No Iterations 4
DILUPBiCGStab:  Solving for Uz, Initial residual = 0.443659, Final residual = 0.00305771, No Iterations 4
Pressure gradient source: uncorrected Ubar = 38.8745, pressure gradient = 2963.43
GAMG:  Solving for p, Initial residual = 0.367123, Final residual = 0.0354144, No Iterations 4
time step continuity errors : sum local = 2.75257e-13, global = -9.10496e-14, cumulative = -4.76672e-13
Pressure gradient source: uncorrected Ubar = 38.8798, pressure gradient = 2301.27
DILUPBiCGStab:  Solving for omega, Initial residual = 1.74323e-07, Final residual = 6.06713e-10, No Iterations 2
DILUPBiCGStab:  Solving for k, Initial residual = 0.0102961, Final residual = 8.22471e-05, No Iterations 2
bounding k, min: 0 max: 1.16348 average: 0.0801398
ExecutionTime = 3.19 s  ClockTime = 10 s

Time = 45

DILUPBiCGStab:  Solving for Ux, Initial residual = 0.00242431, Final residual = 1.95735e-05, No Iterations 3
DILUPBiCGStab:  Solving for Uy, Initial residual = 0.376203, Final residual = 0.00315739, No Iterations 4
DILUPBiCGStab:  Solving for Uz, Initial residual = 0.178594, Final residual = 0.00172578, No Iterations 4
Pressure gradient source: uncorrected Ubar = 38.8745, pressure gradient = 3000.62
GAMG:  Solving for p, Initial residual = 0.354239, Final residual = 0.0353415, No Iterations 4
time step continuity errors : sum local = 2.56358e-13, global = -1.20904e-13, cumulative = -5.97576e-13
Pressure gradient source: uncorrected Ubar = 38.8797, pressure gradient = 2333.5
DILUPBiCGStab:  Solving for omega, Initial residual = 1.67531e-07, Final residual = 5.88845e-10, No Iterations 2
DILUPBiCGStab:  Solving for k, Initial residual = 0.0106649, Final residual = 8.34555e-05, No Iterations 2
bounding k, min: 0 max: 1.36486 average: 0.0917526
ExecutionTime = 3.26 s  ClockTime = 10 s

Time = 46

DILUPBiCGStab:  Solving for Ux, Initial residual = 0.00235075, Final residual = 1.8383e-05, No Iterations 3
DILUPBiCGStab:  Solving for Uy, Initial residual = 0.400289, Final residual = 0.00304744, No Iterations 4
DILUPBiCGStab:  Solving for Uz, Initial residual = 0.19825, Final residual = 0.00192035, No Iterations 4
Pressure gradient source: uncorrected Ubar = 38.8745, pressure gradient = 3039.55
GAMG:  Solving for p, Initial residual = 0.373446, Final residual = 0.0289819, No Iterations 6
time step continuity errors : sum local = 1.9474e-13, global = -6.29548e-14, cumulative = -6.60531e-13
Pressure gradient source: uncorrected Ubar = 38.8797, pressure gradient = 2370.12
DILUPBiCGStab:  Solving for omega, Initial residual = 1.61098e-07, Final residual = 5.71722e-10, No Iterations 2
DILUPBiCGStab:  Solving for k, Initial residual = 0.0109449, Final residual = 8.38084e-05, No Iterations 2
bounding k, min: 0 max: 1.59092 average: 0.105228
ExecutionTime = 3.33 s  ClockTime = 10 s

Time = 47

DILUPBiCGStab:  Solving for Ux, Initial residual = 0.0022785, Final residual = 1.72029e-05, No Iterations 3
DILUPBiCGStab:  Solving for Uy, Initial residual = 0.474953, Final residual = 0.00350809, No Iterations 4
DILUPBiCGStab:  Solving for Uz, Initial residual = 0.350137, Final residual = 0.00275179, No Iterations 4
Pressure gradient source: uncorrected Ubar = 38.8746, pressure gradient = 3076.31
GAMG:  Solving for p, Initial residual = 0.345557, Final residual = 0.0272027, No Iterations 4
time step continuity errors : sum local = 1.7088e-13, global = 2.8615e-14, cumulative = -6.31916e-13
Pressure gradient source: uncorrected Ubar = 38.8797, pressure gradient = 2410.38
DILUPBiCGStab:  Solving for omega, Initial residual = 1.55047e-07, Final residual = 5.5574e-10, No Iterations 2
DILUPBiCGStab:  Solving for k, Initial residual = 0.0111439, Final residual = 8.37092e-05, No Iterations 2
bounding k, min: 0 max: 1.84118 average: 0.120751
ExecutionTime = 3.4 s  ClockTime = 10 s

Time = 48

DILUPBiCGStab:  Solving for Ux, Initial residual = 0.00220652, Final residual = 1.60664e-05, No Iterations 3
DILUPBiCGStab:  Solving for Uy, Initial residual = 0.398508, Final residual = 0.00248852, No Iterations 4
DILUPBiCGStab:  Solving for Uz, Initial residual = 0.259594, Final residual = 0.00214643, No Iterations 4
Pressure gradient source: uncorrected Ubar = 38.8746, pressure gradient = 3122.82
GAMG:  Solving for p, Initial residual = 0.38812, Final residual = 0.0285089, No Iterations 5
time step continuity errors : sum local = 2.86582e-13, global = 9.34977e-14, cumulative = -5.38418e-13
Pressure gradient source: uncorrected Ubar = 38.8797, pressure gradient = 2454.84
DILUPBiCGStab:  Solving for omega, Initial residual = 1.49307e-07, Final residual = 5.40658e-10, No Iterations 2
DILUPBiCGStab:  Solving for k, Initial residual = 0.0112555, Final residual = 8.28556e-05, No Iterations 2
bounding k, min: 0 max: 2.11438 average: 0.138488
ExecutionTime = 3.47 s  ClockTime = 10 s

Time = 49

DILUPBiCGStab:  Solving for Ux, Initial residual = 0.0021356, Final residual = 1.49347e-05, No Iterations 3
DILUPBiCGStab:  Solving for Uy, Initial residual = 0.35856, Final residual = 0.00243413, No Iterations 4
DILUPBiCGStab:  Solving for Uz, Initial residual = 0.212741, Final residual = 0.00196294, No Iterations 4
Pressure gradient source: uncorrected Ubar = 38.8746, pressure gradient = 3185.26
GAMG:  Solving for p, Initial residual = 0.412562, Final residual = 0.0339104, No Iterations 5
time step continuity errors : sum local = 1.30423e-13, global = 1.23944e-14, cumulative = -5.26023e-13
Pressure gradient source: uncorrected Ubar = 38.8796, pressure gradient = 2504.67
DILUPBiCGStab:  Solving for omega, Initial residual = 1.4394e-07, Final residual = 5.26757e-10, No Iterations 2
DILUPBiCGStab:  Solving for k, Initial residual = 0.0112898, Final residual = 8.17611e-05, No Iterations 2
bounding k, min: 0 max: 2.40857 average: 0.158587
ExecutionTime = 3.54 s  ClockTime = 10 s

Time = 50

DILUPBiCGStab:  Solving for Ux, Initial residual = 0.00206505, Final residual = 1.38518e-05, No Iterations 3
DILUPBiCGStab:  Solving for Uy, Initial residual = 0.451223, Final residual = 0.00260131, No Iterations 4
DILUPBiCGStab:  Solving for Uz, Initial residual = 0.618672, Final residual = 0.00552531, No Iterations 4
Pressure gradient source: uncorrected Ubar = 38.8746, pressure gradient = 3244.63
GAMG:  Solving for p, Initial residual = 0.360334, Final residual = 0.0169617, No Iterations 5
time step continuity errors : sum local = 1.56351e-13, global = -6.79112e-14, cumulative = -5.93935e-13
Pressure gradient source: uncorrected Ubar = 38.8796, pressure gradient = 2558.78
DILUPBiCGStab:  Solving for omega, Initial residual = 1.38989e-07, Final residual = 5.14402e-10, No Iterations 2
DILUPBiCGStab:  Solving for k, Initial residual = 0.0112555, Final residual = 8.04707e-05, No Iterations 2
bounding k, min: 0 max: 2.72129 average: 0.181173
ExecutionTime = 3.62 s  ClockTime = 10 s

Time = 51

DILUPBiCGStab:  Solving for Ux, Initial residual = 0.00199526, Final residual = 1.98437e-05, No Iterations 3
DILUPBiCGStab:  Solving for Uy, Initial residual = 0.511559, Final residual = 0.0030282, No Iterations 4
DILUPBiCGStab:  Solving for Uz, Initial residual = 0.343118, Final residual = 0.00278724, No Iterations 4
Pressure gradient source: uncorrected Ubar = 38.8734, pressure gradient = 3490.04
GAMG:  Solving for p, Initial residual = 0.398635, Final residual = 0.0250818, No Iterations 5
time step continuity errors : sum local = 2.08032e-13, global = -7.632e-14, cumulative = -6.70255e-13
Pressure gradient source: uncorrected Ubar = 38.8796, pressure gradient = 2616.69
DILUPBiCGStab:  Solving for omega, Initial residual = 1.34454e-07, Final residual = 5.03446e-10, No Iterations 2
DILUPBiCGStab:  Solving for k, Initial residual = 0.0111585, Final residual = 7.86481e-05, No Iterations 2
bounding k, min: 0 max: 3.04976 average: 0.206342
ExecutionTime = 3.68 s  ClockTime = 10 s

Time = 52

DILUPBiCGStab:  Solving for Ux, Initial residual = 0.0019297, Final residual = 1.82241e-05, No Iterations 3
DILUPBiCGStab:  Solving for Uy, Initial residual = 0.466689, Final residual = 0.00258738, No Iterations 4
DILUPBiCGStab:  Solving for Uz, Initial residual = 0.193016, Final residual = 0.00114266, No Iterations 4
Pressure gradient source: uncorrected Ubar = 38.8737, pressure gradient = 3519.26
GAMG:  Solving for p, Initial residual = 0.381014, Final residual = 0.0241871, No Iterations 5
time step continuity errors : sum local = 1.57761e-13, global = -1.53527e-14, cumulative = -6.85607e-13
Pressure gradient source: uncorrected Ubar = 38.8796, pressure gradient = 2675.4
DILUPBiCGStab:  Solving for omega, Initial residual = 1.30148e-07, Final residual = 4.93156e-10, No Iterations 2
DILUPBiCGStab:  Solving for k, Initial residual = 0.0109766, Final residual = 7.65758e-05, No Iterations 2
bounding k, min: 0 max: 3.38577 average: 0.234106
ExecutionTime = 3.76 s  ClockTime = 10 s

Time = 53

DILUPBiCGStab:  Solving for Ux, Initial residual = 0.00186782, Final residual = 1.69232e-05, No Iterations 3
DILUPBiCGStab:  Solving for Uy, Initial residual = 0.417282, Final residual = 0.0025315, No Iterations 4
DILUPBiCGStab:  Solving for Uz, Initial residual = 0.350334, Final residual = 0.00337071, No Iterations 4
Pressure gradient source: uncorrected Ubar = 38.874, pressure gradient = 3552.42
GAMG:  Solving for p, Initial residual = 0.366969, Final residual = 0.0331196, No Iterations 6
time step continuity errors : sum local = 2.71948e-13, global = -5.63184e-14, cumulative = -7.41926e-13
Pressure gradient source: uncorrected Ubar = 38.8796, pressure gradient = 2734.84
DILUPBiCGStab:  Solving for omega, Initial residual = 1.26169e-07, Final residual = 4.8486e-10, No Iterations 2
DILUPBiCGStab:  Solving for k, Initial residual = 0.0106154, Final residual = 7.37199e-05, No Iterations 2
bounding k, min: 0 max: 3.71169 average: 0.264235
ExecutionTime = 3.82 s  ClockTime = 10 s

Time = 54

DILUPBiCGStab:  Solving for Ux, Initial residual = 0.00180915, Final residual = 1.57641e-05, No Iterations 3
DILUPBiCGStab:  Solving for Uy, Initial residual = 0.513243, Final residual = 0.00318418, No Iterations 4
DILUPBiCGStab:  Solving for Uz, Initial residual = 0.470269, Final residual = 0.00445644, No Iterations 4
Pressure gradient source: uncorrected Ubar = 38.8743, pressure gradient = 3588.17
GAMG:  Solving for p, Initial residual = 0.390916, Final residual = 0.0344497, No Iterations 4
time step continuity errors : sum local = 1.989e-13, global = -4.72248e-15, cumulative = -7.46648e-13
Pressure gradient source: uncorrected Ubar = 38.8796, pressure gradient = 2794.91
DILUPBiCGStab:  Solving for omega, Initial residual = 1.22511e-07, Final residual = 4.77001e-10, No Iterations 2
DILUPBiCGStab:  Solving for k, Initial residual = 0.0101444, Final residual = 7.09576e-05, No Iterations 2
bounding k, min: 0 max: 4.02178 average: 0.296472
ExecutionTime = 3.89 s  ClockTime = 10 s

Time = 55

DILUPBiCGStab:  Solving for Ux, Initial residual = 0.00175225, Final residual = 1.46288e-05, No Iterations 3
DILUPBiCGStab:  Solving for Uy, Initial residual = 0.410276, Final residual = 0.00200127, No Iterations 4
DILUPBiCGStab:  Solving for Uz, Initial residual = 0.417122, Final residual = 0.00235658, No Iterations 4
Pressure gradient source: uncorrected Ubar = 38.8745, pressure gradient = 3631.97
GAMG:  Solving for p, Initial residual = 0.366558, Final residual = 0.0201737, No Iterations 5
time step continuity errors : sum local = 1.39931e-13, global = 5.83698e-14, cumulative = -6.88278e-13
Pressure gradient source: uncorrected Ubar = 38.8796, pressure gradient = 2856.41
DILUPBiCGStab:  Solving for omega, Initial residual = 1.19016e-07, Final residual = 4.67961e-10, No Iterations 2
DILUPBiCGStab:  Solving for k, Initial residual = 0.00964015, Final residual = 6.82323e-05, No Iterations 2
bounding k, min: 0 max: 4.32975 average: 0.3306
ExecutionTime = 3.97 s  ClockTime = 10 s

Time = 56

DILUPBiCGStab:  Solving for Ux, Initial residual = 0.00169548, Final residual = 1.34812e-05, No Iterations 3
DILUPBiCGStab:  Solving for Uy, Initial residual = 0.397924, Final residual = 0.00163549, No Iterations 4
DILUPBiCGStab:  Solving for Uz, Initial residual = 0.390842, Final residual = 0.00199748, No Iterations 4
Pressure gradient source: uncorrected Ubar = 38.8748, pressure gradient = 3675.94
GAMG:  Solving for p, Initial residual = 0.366211, Final residual = 0.020111, No Iterations 5
time step continuity errors : sum local = 1.36606e-13, global = 5.6874e-14, cumulative = -6.31404e-13
Pressure gradient source: uncorrected Ubar = 38.8796, pressure gradient = 2919.19
DILUPBiCGStab:  Solving for omega, Initial residual = 1.15633e-07, Final residual = 4.5619e-10, No Iterations 2
DILUPBiCGStab:  Solving for k, Initial residual = 0.00913744, Final residual = 6.51053e-05, No Iterations 2
bounding k, min: 0 max: 4.62671 average: 0.366425
ExecutionTime = 4.03 s  ClockTime = 10 s

Time = 57

DILUPBiCGStab:  Solving for Ux, Initial residual = 0.00163908, Final residual = 1.23491e-05, No Iterations 3
DILUPBiCGStab:  Solving for Uy, Initial residual = 0.442111, Final residual = 0.0024128, No Iterations 4
DILUPBiCGStab:  Solving for Uz, Initial residual = 0.481326, Final residual = 0.00261414, No Iterations 4
Pressure gradient source: uncorrected Ubar = 38.875, pressure gradient = 3722.19
GAMG:  Solving for p, Initial residual = 0.367991, Final residual = 0.0225902, No Iterations 5
time step continuity errors : sum local = 1.77522e-13, global = 5.43479e-14, cumulative = -5.77056e-13
Pressure gradient source: uncorrected Ubar = 38.8796, pressure gradient = 2983.41
DILUPBiCGStab:  Solving for omega, Initial residual = 1.12337e-07, Final residual = 4.42523e-10, No Iterations 2
DILUPBiCGStab:  Solving for k, Initial residual = 0.0086666, Final residual = 6.22773e-05, No Iterations 2
bounding k, min: 0 max: 4.91631 average: 0.403809
ExecutionTime = 4.11 s  ClockTime = 10 s

Time = 58

DILUPBiCGStab:  Solving for Ux, Initial residual = 0.00158339, Final residual = 1.12251e-05, No Iterations 3
DILUPBiCGStab:  Solving for Uy, Initial residual = 0.405837, Final residual = 0.00357008, No Iterations 3
DILUPBiCGStab:  Solving for Uz, Initial residual = 0.467045, Final residual = 0.00223317, No Iterations 4
Pressure gradient source: uncorrected Ubar = 38.8752, pressure gradient = 3764.87
GAMG:  Solving for p, Initial residual = 0.375758, Final residual = 0.0320937, No Iterations 4
time step continuity errors : sum local = 2.17919e-13, global = 4.37285e-14, cumulative = -5.33328e-13
Pressure gradient source: uncorrected Ubar = 38.8796, pressure gradient = 3048.5
DILUPBiCGStab:  Solving for omega, Initial residual = 1.09143e-07, Final residual = 4.26563e-10, No Iterations 2
DILUPBiCGStab:  Solving for k, Initial residual = 0.0082214, Final residual = 5.91692e-05, No Iterations 2
bounding k, min: 0 max: 5.19912 average: 0.442601
ExecutionTime = 4.18 s  ClockTime = 11 s

Time = 59

DILUPBiCGStab:  Solving for Ux, Initial residual = 0.00152872, Final residual = 1.01565e-05, No Iterations 3
DILUPBiCGStab:  Solving for Uy, Initial residual = 0.50614, Final residual = 0.00471725, No Iterations 3
DILUPBiCGStab:  Solving for Uz, Initial residual = 0.27463, Final residual = 0.00121378, No Iterations 4
Pressure gradient source: uncorrected Ubar = 38.8755, pressure gradient = 3809.97
GAMG:  Solving for p, Initial residual = 0.355744, Final residual = 0.0325507, No Iterations 4
time step continuity errors : sum local = 2.45058e-13, global = 7.25371e-14, cumulative = -4.60791e-13
Pressure gradient source: uncorrected Ubar = 38.8796, pressure gradient = 3114.67
DILUPBiCGStab:  Solving for omega, Initial residual = 1.06143e-07, Final residual = 4.09793e-10, No Iterations 2
DILUPBiCGStab:  Solving for k, Initial residual = 0.00781659, Final residual = 5.64782e-05, No Iterations 2
bounding k, min: 0 max: 5.4778 average: 0.482697
ExecutionTime = 4.24 s  ClockTime = 11 s

Time = 60

DILUPBiCGStab:  Solving for Ux, Initial residual = 0.00147514, Final residual = 9.14115e-06, No Iterations 3
DILUPBiCGStab:  Solving for Uy, Initial residual = 0.448785, Final residual = 0.00358065, No Iterations 3
DILUPBiCGStab:  Solving for Uz, Initial residual = 0.376483, Final residual = 0.00201425, No Iterations 4
Pressure gradient source: uncorrected Ubar = 38.8757, pressure gradient = 3852.62
GAMG:  Solving for p, Initial residual = 0.348652, Final residual = 0.029559, No Iterations 4
time step continuity errors : sum local = 1.80787e-13, global = 4.91392e-14, cumulative = -4.11652e-13
Pressure gradient source: uncorrected Ubar = 38.8796, pressure gradient = 3181.52
DILUPBiCGStab:  Solving for omega, Initial residual = 1.03149e-07, Final residual = 3.91855e-10, No Iterations 2
DILUPBiCGStab:  Solving for k, Initial residual = 0.00744508, Final residual = 5.38912e-05, No Iterations 2
bounding k, min: 0 max: 5.75219 average: 0.523995
ExecutionTime = 4.31 s  ClockTime = 11 s

Time = 61

DILUPBiCGStab:  Solving for Ux, Initial residual = 0.00142235, Final residual = 8.21632e-06, No Iterations 3
DILUPBiCGStab:  Solving for Uy, Initial residual = 0.332729, Final residual = 0.00246256, No Iterations 3
DILUPBiCGStab:  Solving for Uz, Initial residual = 0.27128, Final residual = 0.00249685, No Iterations 3
Pressure gradient source: uncorrected Ubar = 38.8759, pressure gradient = 3892.59
GAMG:  Solving for p, Initial residual = 0.352524, Final residual = 0.0319637, No Iterations 4
time step continuity errors : sum local = 1.9304e-13, global = 7.38155e-14, cumulative = -3.37836e-13
Pressure gradient source: uncorrected Ubar = 38.8796, pressure gradient = 3248.57
DILUPBiCGStab:  Solving for omega, Initial residual = 1.00328e-07, Final residual = 3.73898e-10, No Iterations 2
DILUPBiCGStab:  Solving for k, Initial residual = 0.00710144, Final residual = 5.12457e-05, No Iterations 2
bounding k, min: 0 max: 6.02284 average: 0.566391
ExecutionTime = 4.37 s  ClockTime = 11 s

Time = 62

DILUPBiCGStab:  Solving for Ux, Initial residual = 0.00137158, Final residual = 7.4442e-06, No Iterations 3
DILUPBiCGStab:  Solving for Uy, Initial residual = 0.464272, Final residual = 0.00358779, No Iterations 3
DILUPBiCGStab:  Solving for Uz, Initial residual = 0.288074, Final residual = 0.00251969, No Iterations 3
Pressure gradient source: uncorrected Ubar = 38.8762, pressure gradient = 3935.07
GAMG:  Solving for p, Initial residual = 0.33726, Final residual = 0.0301833, No Iterations 5
time step continuity errors : sum local = 1.6121e-13, global = 8.61971e-15, cumulative = -3.29216e-13
Pressure gradient source: uncorrected Ubar = 38.8796, pressure gradient = 3315.99
DILUPBiCGStab:  Solving for omega, Initial residual = 9.76515e-08, Final residual = 3.56517e-10, No Iterations 2
DILUPBiCGStab:  Solving for k, Initial residual = 0.0067902, Final residual = 4.87496e-05, No Iterations 2
bounding k, min: 0 max: 6.29051 average: 0.609812
ExecutionTime = 4.45 s  ClockTime = 11 s

Time = 63

DILUPBiCGStab:  Solving for Ux, Initial residual = 0.00132376, Final residual = 6.79246e-06, No Iterations 3
DILUPBiCGStab:  Solving for Uy, Initial residual = 0.471062, Final residual = 0.00317635, No Iterations 3
DILUPBiCGStab:  Solving for Uz, Initial residual = 0.480304, Final residual = 0.00176395, No Iterations 4
Pressure gradient source: uncorrected Ubar = 38.8764, pressure gradient = 3976.19
GAMG:  Solving for p, Initial residual = 0.331246, Final residual = 0.022377, No Iterations 5
time step continuity errors : sum local = 2.11785e-13, global = -8.95482e-14, cumulative = -4.18765e-13
Pressure gradient source: uncorrected Ubar = 38.8796, pressure gradient = 3383.51
DILUPBiCGStab:  Solving for omega, Initial residual = 9.51026e-08, Final residual = 3.38053e-10, No Iterations 2
DILUPBiCGStab:  Solving for k, Initial residual = 0.00649999, Final residual = 4.62658e-05, No Iterations 2
bounding k, min: 0 max: 6.55476 average: 0.654165
ExecutionTime = 4.52 s  ClockTime = 11 s

Time = 64

DILUPBiCGStab:  Solving for Ux, Initial residual = 0.00127814, Final residual = 6.29356e-06, No Iterations 3
DILUPBiCGStab:  Solving for Uy, Initial residual = 0.377018, Final residual = 0.00223689, No Iterations 3
DILUPBiCGStab:  Solving for Uz, Initial residual = 0.560487, Final residual = 0.00218641, No Iterations 4
Pressure gradient source: uncorrected Ubar = 38.8766, pressure gradient = 4018.17
GAMG:  Solving for p, Initial residual = 0.331712, Final residual = 0.0224578, No Iterations 9
time step continuity errors : sum local = 1.22838e-13, global = 1.18495e-14, cumulative = -4.06915e-13
Pressure gradient source: uncorrected Ubar = 38.8796, pressure gradient = 3451.08
DILUPBiCGStab:  Solving for omega, Initial residual = 9.27164e-08, Final residual = 3.19954e-10, No Iterations 2
DILUPBiCGStab:  Solving for k, Initial residual = 0.00623238, Final residual = 4.38295e-05, No Iterations 2
bounding k, min: 0 max: 6.81569 average: 0.699372
ExecutionTime = 4.59 s  ClockTime = 11 s

Time = 65

DILUPBiCGStab:  Solving for Ux, Initial residual = 0.00123559, Final residual = 5.88986e-06, No Iterations 3
DILUPBiCGStab:  Solving for Uy, Initial residual = 0.438244, Final residual = 0.00274777, No Iterations 3
DILUPBiCGStab:  Solving for Uz, Initial residual = 0.450169, Final residual = 0.00370404, No Iterations 3
Pressure gradient source: uncorrected Ubar = 38.8768, pressure gradient = 4060.75
GAMG:  Solving for p, Initial residual = 0.337535, Final residual = 0.0288774, No Iterations 6
time step continuity errors : sum local = 2.00855e-13, global = -4.01467e-14, cumulative = -4.47062e-13
Pressure gradient source: uncorrected Ubar = 38.8797, pressure gradient = 3518.52
DILUPBiCGStab:  Solving for omega, Initial residual = 9.04011e-08, Final residual = 3.02422e-10, No Iterations 2
DILUPBiCGStab:  Solving for k, Initial residual = 0.00598549, Final residual = 4.14145e-05, No Iterations 2
bounding k, min: 0 max: 7.07355 average: 0.745369
ExecutionTime = 4.67 s  ClockTime = 11 s

Time = 66

DILUPBiCGStab:  Solving for Ux, Initial residual = 0.00119683, Final residual = 5.55107e-06, No Iterations 3
DILUPBiCGStab:  Solving for Uy, Initial residual = 0.524304, Final residual = 0.00358604, No Iterations 3
DILUPBiCGStab:  Solving for Uz, Initial residual = 0.436864, Final residual = 0.00335563, No Iterations 3
Pressure gradient source: uncorrected Ubar = 38.877, pressure gradient = 4104.84
GAMG:  Solving for p, Initial residual = 0.378126, Final residual = 0.031744, No Iterations 6
time step continuity errors : sum local = 2.01552e-13, global = 2.85385e-14, cumulative = -4.18523e-13
Pressure gradient source: uncorrected Ubar = 38.8797, pressure gradient = 3585.85
DILUPBiCGStab:  Solving for omega, Initial residual = 8.82717e-08, Final residual = 8.53979e-10, No Iterations 2
DILUPBiCGStab:  Solving for k, Initial residual = 0.00575421, Final residual = 3.91237e-05, No Iterations 2
bounding k, min: 0 max: 7.3281 average: 0.792078
ExecutionTime = 4.74 s  ClockTime = 11 s

Time = 67

DILUPBiCGStab:  Solving for Ux, Initial residual = 0.00116233, Final residual = 5.2611e-06, No Iterations 3
DILUPBiCGStab:  Solving for Uy, Initial residual = 0.462388, Final residual = 0.00237045, No Iterations 3
DILUPBiCGStab:  Solving for Uz, Initial residual = 0.329845, Final residual = 0.0030739, No Iterations 3
Pressure gradient source: uncorrected Ubar = 38.8772, pressure gradient = 4150.11
GAMG:  Solving for p, Initial residual = 0.348512, Final residual = 0.0327415, No Iterations 5
time step continuity errors : sum local = 3.99134e-13, global = 2.07033e-13, cumulative = -2.1149e-13
Pressure gradient source: uncorrected Ubar = 38.8797, pressure gradient = 3653.05
DILUPBiCGStab:  Solving for omega, Initial residual = 8.6374e-08, Final residual = 7.78508e-10, No Iterations 2
DILUPBiCGStab:  Solving for k, Initial residual = 0.00553753, Final residual = 3.68524e-05, No Iterations 2
bounding k, min: 0 max: 7.57934 average: 0.839427
ExecutionTime = 4.81 s  ClockTime = 11 s

Time = 68

DILUPBiCGStab:  Solving for Ux, Initial residual = 0.00113237, Final residual = 5.04161e-06, No Iterations 3
DILUPBiCGStab:  Solving for Uy, Initial residual = 0.440133, Final residual = 0.00438474, No Iterations 3
DILUPBiCGStab:  Solving for Uz, Initial residual = 0.540759, Final residual = 0.00409808, No Iterations 3
Pressure gradient source: uncorrected Ubar = 38.8774, pressure gradient = 4195.25
GAMG:  Solving for p, Initial residual = 0.385015, Final residual = 0.036878, No Iterations 5
time step continuity errors : sum local = 3.29361e-13, global = 1.23943e-13, cumulative = -8.75468e-14
Pressure gradient source: uncorrected Ubar = 38.8797, pressure gradient = 3719.9
DILUPBiCGStab:  Solving for omega, Initial residual = 8.45406e-08, Final residual = 7.07946e-10, No Iterations 2
DILUPBiCGStab:  Solving for k, Initial residual = 0.00533522, Final residual = 3.46369e-05, No Iterations 2
bounding k, min: 0 max: 7.82739 average: 0.887352
ExecutionTime = 4.88 s  ClockTime = 11 s

Time = 69

DILUPBiCGStab:  Solving for Ux, Initial residual = 0.00110652, Final residual = 4.88379e-06, No Iterations 3
DILUPBiCGStab:  Solving for Uy, Initial residual = 0.426978, Final residual = 0.00321929, No Iterations 3
DILUPBiCGStab:  Solving for Uz, Initial residual = 0.265572, Final residual = 0.00225669, No Iterations 3
Pressure gradient source: uncorrected Ubar = 38.8775, pressure gradient = 4242.46
GAMG:  Solving for p, Initial residual = 0.379784, Final residual = 0.0272896, No Iterations 5
time step continuity errors : sum local = 3.28961e-13, global = 1.75361e-13, cumulative = 8.78147e-14
Pressure gradient source: uncorrected Ubar = 38.8797, pressure gradient = 3786.45
DILUPBiCGStab:  Solving for omega, Initial residual = 8.27782e-08, Final residual = 6.42146e-10, No Iterations 2
DILUPBiCGStab:  Solving for k, Initial residual = 0.00514626, Final residual = 3.25092e-05, No Iterations 2
bounding k, min: 0 max: 8.07237 average: 0.935796
ExecutionTime = 4.95 s  ClockTime = 11 s

Time = 70

DILUPBiCGStab:  Solving for Ux, Initial residual = 0.00108415, Final residual = 4.78499e-06, No Iterations 3
DILUPBiCGStab:  Solving for Uy, Initial residual = 0.484042, Final residual = 0.00229736, No Iterations 3
DILUPBiCGStab:  Solving for Uz, Initial residual = 0.355385, Final residual = 0.00224919, No Iterations 3
Pressure gradient source: uncorrected Ubar = 38.8777, pressure gradient = 4288.64
[...]
DILUPBiCGStab:  Solving for Uz, Initial residual = 0.464195, Final residual = 0.00161984, No Iterations 3
Pressure gradient source: uncorrected Ubar = 38.88, pressure gradient = 7614.42
GAMG:  Solving for p, Initial residual = 0.41181, Final residual = 0.0407036, No Iterations 6
time step continuity errors : sum local = 3.67753e-13, global = -6.1892e-14, cumulative = -1.49236e-11
Pressure gradient source: uncorrected Ubar = 38.88, pressure gradient = 7612.77
DILUPBiCGStab:  Solving for omega, Initial residual = 1.02811e-10, Final residual = 6.90153e-13, No Iterations 1
DILUPBiCGStab:  Solving for k, Initial residual = 2.87719e-06, Final residual = 9.75642e-09, No Iterations 2
bounding k, min: 0 max: 17.4048 average: 6.16756
ExecutionTime = 171.67 s  ClockTime = 178 s

Time = 2410

DILUPBiCGStab:  Solving for Ux, Initial residual = 6.02077e-06, Final residual = 3.46789e-08, No Iterations 2
DILUPBiCGStab:  Solving for Uy, Initial residual = 0.721041, Final residual = 0.00227407, No Iterations 3
DILUPBiCGStab:  Solving for Uz, Initial residual = 0.748584, Final residual = 0.00693958, No Iterations 2
Pressure gradient source: uncorrected Ubar = 38.88, pressure gradient = 7614.46
GAMG:  Solving for p, Initial residual = 0.46067, Final residual = 0.0442122, No Iterations 6
time step continuity errors : sum local = 3.26704e-13, global = -3.94091e-14, cumulative = -1.4963e-11
Pressure gradient source: uncorrected Ubar = 38.88, pressure gradient = 7612.81
DILUPBiCGStab:  Solving for omega, Initial residual = 1.02653e-10, Final residual = 6.89122e-13, No Iterations 1
DILUPBiCGStab:  Solving for k, Initial residual = 2.87278e-06, Final residual = 9.74147e-09, No Iterations 2
bounding k, min: 0 max: 17.4049 average: 6.16753
ExecutionTime = 171.73 s  ClockTime = 178 s

Time = 2411

DILUPBiCGStab:  Solving for Ux, Initial residual = 6.01134e-06, Final residual = 3.46255e-08, No Iterations 2
DILUPBiCGStab:  Solving for Uy, Initial residual = 0.662057, Final residual = 0.00195294, No Iterations 3
DILUPBiCGStab:  Solving for Uz, Initial residual = 0.543418, Final residual = 0.00164439, No Iterations 3
Pressure gradient source: uncorrected Ubar = 38.88, pressure gradient = 7614.5
GAMG:  Solving for p, Initial residual = 0.454261, Final residual = 0.0380845, No Iterations 7
time step continuity errors : sum local = 3.00635e-13, global = 4.42915e-14, cumulative = -1.49188e-11
Pressure gradient source: uncorrected Ubar = 38.88, pressure gradient = 7612.86
DILUPBiCGStab:  Solving for omega, Initial residual = 1.02495e-10, Final residual = 6.88093e-13, No Iterations 1
DILUPBiCGStab:  Solving for k, Initial residual = 2.86837e-06, Final residual = 9.72654e-09, No Iterations 2
bounding k, min: 0 max: 17.405 average: 6.1675
ExecutionTime = 171.8 s  ClockTime = 178 s

Time = 2412

DILUPBiCGStab:  Solving for Ux, Initial residual = 6.00192e-06, Final residual = 3.45721e-08, No Iterations 2
DILUPBiCGStab:  Solving for Uy, Initial residual = 0.612517, Final residual = 0.00185798, No Iterations 3
DILUPBiCGStab:  Solving for Uz, Initial residual = 0.521234, Final residual = 0.00173322, No Iterations 3
Pressure gradient source: uncorrected Ubar = 38.88, pressure gradient = 7614.54
GAMG:  Solving for p, Initial residual = 0.402428, Final residual = 0.0342559, No Iterations 5
time step continuity errors : sum local = 2.92731e-13, global = 5.78342e-14, cumulative = -1.48609e-11
Pressure gradient source: uncorrected Ubar = 38.88, pressure gradient = 7612.9
DILUPBiCGStab:  Solving for omega, Initial residual = 1.02338e-10, Final residual = 6.87065e-13, No Iterations 1
DILUPBiCGStab:  Solving for k, Initial residual = 2.86398e-06, Final residual = 9.71164e-09, No Iterations 2
bounding k, min: 0 max: 17.4052 average: 6.16747
ExecutionTime = 171.88 s  ClockTime = 178 s

Time = 2413

DILUPBiCGStab:  Solving for Ux, Initial residual = 5.99252e-06, Final residual = 3.45189e-08, No Iterations 2
DILUPBiCGStab:  Solving for Uy, Initial residual = 0.532985, Final residual = 0.00215599, No Iterations 3
DILUPBiCGStab:  Solving for Uz, Initial residual = 0.481562, Final residual = 0.00141047, No Iterations 3
Pressure gradient source: uncorrected Ubar = 38.88, pressure gradient = 7614.59
GAMG:  Solving for p, Initial residual = 0.410682, Final residual = 0.0337106, No Iterations 7
time step continuity errors : sum local = 2.86235e-13, global = 4.39348e-14, cumulative = -1.4817e-11
Pressure gradient source: uncorrected Ubar = 38.88, pressure gradient = 7612.94
DILUPBiCGStab:  Solving for omega, Initial residual = 1.0218e-10, Final residual = 6.86039e-13, No Iterations 1
DILUPBiCGStab:  Solving for k, Initial residual = 2.85959e-06, Final residual = 9.69676e-09, No Iterations 2
bounding k, min: 0 max: 17.4053 average: 6.16744
ExecutionTime = 171.94 s  ClockTime = 178 s

Time = 2414

DILUPBiCGStab:  Solving for Ux, Initial residual = 5.98314e-06, Final residual = 3.44657e-08, No Iterations 2
DILUPBiCGStab:  Solving for Uy, Initial residual = 0.630475, Final residual = 0.0020016, No Iterations 3
DILUPBiCGStab:  Solving for Uz, Initial residual = 0.510501, Final residual = 0.00164526, No Iterations 3
Pressure gradient source: uncorrected Ubar = 38.88, pressure gradient = 7614.63
GAMG:  Solving for p, Initial residual = 0.387284, Final residual = 0.0346787, No Iterations 6
time step continuity errors : sum local = 3.57734e-13, global = -1.51492e-13, cumulative = -1.49685e-11
Pressure gradient source: uncorrected Ubar = 38.88, pressure gradient = 7612.98
DILUPBiCGStab:  Solving for omega, Initial residual = 1.02023e-10, Final residual = 6.85015e-13, No Iterations 1
DILUPBiCGStab:  Solving for k, Initial residual = 2.8552e-06, Final residual = 9.6819e-09, No Iterations 2
bounding k, min: 0 max: 17.4054 average: 6.16741
ExecutionTime = 172.01 s  ClockTime = 178 s

Time = 2415

DILUPBiCGStab:  Solving for Ux, Initial residual = 5.97377e-06, Final residual = 3.44126e-08, No Iterations 2
DILUPBiCGStab:  Solving for Uy, Initial residual = 0.580067, Final residual = 0.0020547, No Iterations 3
DILUPBiCGStab:  Solving for Uz, Initial residual = 0.47771, Final residual = 0.00180786, No Iterations 3
Pressure gradient source: uncorrected Ubar = 38.88, pressure gradient = 7614.67
GAMG:  Solving for p, Initial residual = 0.360189, Final residual = 0.0287137, No Iterations 7
time step continuity errors : sum local = 2.87212e-13, global = -1.33061e-13, cumulative = -1.51015e-11
Pressure gradient source: uncorrected Ubar = 38.88, pressure gradient = 7613.03
DILUPBiCGStab:  Solving for omega, Initial residual = 1.01867e-10, Final residual = 6.83993e-13, No Iterations 1
DILUPBiCGStab:  Solving for k, Initial residual = 2.85083e-06, Final residual = 9.66707e-09, No Iterations 2
bounding k, min: 0 max: 17.4056 average: 6.16738
ExecutionTime = 172.09 s  ClockTime = 179 s

Time = 2416

DILUPBiCGStab:  Solving for Ux, Initial residual = 5.96442e-06, Final residual = 3.43596e-08, No Iterations 2
DILUPBiCGStab:  Solving for Uy, Initial residual = 0.594462, Final residual = 0.00504825, No Iterations 2
DILUPBiCGStab:  Solving for Uz, Initial residual = 0.349074, Final residual = 0.00109702, No Iterations 3
Pressure gradient source: uncorrected Ubar = 38.88, pressure gradient = 7614.71
GAMG:  Solving for p, Initial residual = 0.398094, Final residual = 0.0366589, No Iterations 6
time step continuity errors : sum local = 3.44114e-13, global = 1.08067e-13, cumulative = -1.49935e-11
Pressure gradient source: uncorrected Ubar = 38.88, pressure gradient = 7613.07
DILUPBiCGStab:  Solving for omega, Initial residual = 1.0171e-10, Final residual = 6.82972e-13, No Iterations 1
DILUPBiCGStab:  Solving for k, Initial residual = 2.84646e-06, Final residual = 9.65226e-09, No Iterations 2
bounding k, min: 0 max: 17.4057 average: 6.16735
ExecutionTime = 172.15 s  ClockTime = 179 s

Time = 2417

DILUPBiCGStab:  Solving for Ux, Initial residual = 5.95508e-06, Final residual = 3.43067e-08, No Iterations 2
DILUPBiCGStab:  Solving for Uy, Initial residual = 0.471504, Final residual = 0.00157103, No Iterations 3
DILUPBiCGStab:  Solving for Uz, Initial residual = 0.528207, Final residual = 0.00216509, No Iterations 3
Pressure gradient source: uncorrected Ubar = 38.88, pressure gradient = 7614.75
GAMG:  Solving for p, Initial residual = 0.36811, Final residual = 0.0279461, No Iterations 7
time step continuity errors : sum local = 2.75751e-13, global = 1.01307e-13, cumulative = -1.48922e-11
Pressure gradient source: uncorrected Ubar = 38.88, pressure gradient = 7613.11
DILUPBiCGStab:  Solving for omega, Initial residual = 1.01554e-10, Final residual = 6.81952e-13, No Iterations 1
DILUPBiCGStab:  Solving for k, Initial residual = 2.8421e-06, Final residual = 9.63747e-09, No Iterations 2
bounding k, min: 0 max: 17.4058 average: 6.16732
ExecutionTime = 172.22 s  ClockTime = 179 s

Time = 2418

DILUPBiCGStab:  Solving for Ux, Initial residual = 5.94575e-06, Final residual = 3.42539e-08, No Iterations 2
DILUPBiCGStab:  Solving for Uy, Initial residual = 0.663418, Final residual = 0.00211915, No Iterations 3
DILUPBiCGStab:  Solving for Uz, Initial residual = 0.574277, Final residual = 0.00502892, No Iterations 2
Pressure gradient source: uncorrected Ubar = 38.88, pressure gradient = 7614.79
GAMG:  Solving for p, Initial residual = 0.368145, Final residual = 0.0315964, No Iterations 8
time step continuity errors : sum local = 2.0989e-13, global = 2.83457e-14, cumulative = -1.48638e-11
Pressure gradient source: uncorrected Ubar = 38.88, pressure gradient = 7613.15
DILUPBiCGStab:  Solving for omega, Initial residual = 1.01398e-10, Final residual = 6.80934e-13, No Iterations 1
DILUPBiCGStab:  Solving for k, Initial residual = 2.83774e-06, Final residual = 9.62271e-09, No Iterations 2
bounding k, min: 0 max: 17.406 average: 6.16729
ExecutionTime = 172.29 s  ClockTime = 179 s

Time = 2419

DILUPBiCGStab:  Solving for Ux, Initial residual = 5.93644e-06, Final residual = 3.42011e-08, No Iterations 2
DILUPBiCGStab:  Solving for Uy, Initial residual = 0.623832, Final residual = 0.00529598, No Iterations 2
DILUPBiCGStab:  Solving for Uz, Initial residual = 0.616711, Final residual = 0.00191175, No Iterations 3
Pressure gradient source: uncorrected Ubar = 38.88, pressure gradient = 7614.83
GAMG:  Solving for p, Initial residual = 0.376035, Final residual = 0.033523, No Iterations 9
time step continuity errors : sum local = 2.62929e-13, global = -8.54244e-14, cumulative = -1.49492e-11
Pressure gradient source: uncorrected Ubar = 38.88, pressure gradient = 7613.2
DILUPBiCGStab:  Solving for omega, Initial residual = 1.01242e-10, Final residual = 6.79918e-13, No Iterations 1
DILUPBiCGStab:  Solving for k, Initial residual = 2.8334e-06, Final residual = 9.60797e-09, No Iterations 2
bounding k, min: 0 max: 17.4061 average: 6.16727
ExecutionTime = 172.36 s  ClockTime = 179 s

Time = 2420

DILUPBiCGStab:  Solving for Ux, Initial residual = 5.92715e-06, Final residual = 3.41485e-08, No Iterations 2
DILUPBiCGStab:  Solving for Uy, Initial residual = 0.645414, Final residual = 0.00210494, No Iterations 3
DILUPBiCGStab:  Solving for Uz, Initial residual = 0.565171, Final residual = 0.00528229, No Iterations 2
Pressure gradient source: uncorrected Ubar = 38.88, pressure gradient = 7614.87
GAMG:  Solving for p, Initial residual = 0.367772, Final residual = 0.0364437, No Iterations 9
time step continuity errors : sum local = 3.51809e-13, global = 1.34018e-13, cumulative = -1.48152e-11
Pressure gradient source: uncorrected Ubar = 38.88, pressure gradient = 7613.24
DILUPBiCGStab:  Solving for omega, Initial residual = 1.01087e-10, Final residual = 6.78904e-13, No Iterations 1
DILUPBiCGStab:  Solving for k, Initial residual = 2.82906e-06, Final residual = 9.59326e-09, No Iterations 2
bounding k, min: 0 max: 17.4062 average: 6.16724
ExecutionTime = 172.44 s  ClockTime = 179 s

Time = 2421

DILUPBiCGStab:  Solving for Ux, Initial residual = 5.91787e-06, Final residual = 3.40959e-08, No Iterations 2
DILUPBiCGStab:  Solving for Uy, Initial residual = 0.562251, Final residual = 0.00138532, No Iterations 3
DILUPBiCGStab:  Solving for Uz, Initial residual = 0.699094, Final residual = 0.00213045, No Iterations 3
Pressure gradient source: uncorrected Ubar = 38.88, pressure gradient = 7614.91
GAMG:  Solving for p, Initial residual = 0.414005, Final residual = 0.0311437, No Iterations 10
time step continuity errors : sum local = 2.3772e-13, global = 2.30001e-14, cumulative = -1.47922e-11
Pressure gradient source: uncorrected Ubar = 38.88, pressure gradient = 7613.28
DILUPBiCGStab:  Solving for omega, Initial residual = 1.00931e-10, Final residual = 6.77891e-13, No Iterations 1
DILUPBiCGStab:  Solving for k, Initial residual = 2.82472e-06, Final residual = 9.57856e-09, No Iterations 2
bounding k, min: 0 max: 17.4064 average: 6.16721
ExecutionTime = 172.51 s  ClockTime = 179 s

Time = 2422

DILUPBiCGStab:  Solving for Ux, Initial residual = 5.90861e-06, Final residual = 3.40434e-08, No Iterations 2
DILUPBiCGStab:  Solving for Uy, Initial residual = 0.667744, Final residual = 0.00202177, No Iterations 3
DILUPBiCGStab:  Solving for Uz, Initial residual = 0.685533, Final residual = 0.00661059, No Iterations 2
Pressure gradient source: uncorrected Ubar = 38.88, pressure gradient = 7614.95
GAMG:  Solving for p, Initial residual = 0.408699, Final residual = 0.0315594, No Iterations 8
time step continuity errors : sum local = 2.27107e-13, global = 2.03343e-14, cumulative = -1.47719e-11
Pressure gradient source: uncorrected Ubar = 38.88, pressure gradient = 7613.32
DILUPBiCGStab:  Solving for omega, Initial residual = 1.00776e-10, Final residual = 6.7688e-13, No Iterations 1
DILUPBiCGStab:  Solving for k, Initial residual = 2.8204e-06, Final residual = 9.56389e-09, No Iterations 2
bounding k, min: 0 max: 17.4065 average: 6.16718
ExecutionTime = 172.58 s  ClockTime = 179 s

Time = 2423

DILUPBiCGStab:  Solving for Ux, Initial residual = 5.89936e-06, Final residual = 3.39911e-08, No Iterations 2
DILUPBiCGStab:  Solving for Uy, Initial residual = 0.704426, Final residual = 0.00620003, No Iterations 2
DILUPBiCGStab:  Solving for Uz, Initial residual = 0.526849, Final residual = 0.00353844, No Iterations 2
Pressure gradient source: uncorrected Ubar = 38.88, pressure gradient = 7614.99
GAMG:  Solving for p, Initial residual = 0.372863, Final residual = 0.0370336, No Iterations 9
time step continuity errors : sum local = 2.46897e-13, global = 3.52849e-14, cumulative = -1.47366e-11
Pressure gradient source: uncorrected Ubar = 38.88, pressure gradient = 7613.37
DILUPBiCGStab:  Solving for omega, Initial residual = 1.00622e-10, Final residual = 6.7587e-13, No Iterations 1
DILUPBiCGStab:  Solving for k, Initial residual = 2.81608e-06, Final residual = 9.54925e-09, No Iterations 2
bounding k, min: 0 max: 17.4066 average: 6.16715
ExecutionTime = 172.65 s  ClockTime = 179 s

Time = 2424

DILUPBiCGStab:  Solving for Ux, Initial residual = 5.89013e-06, Final residual = 3.39388e-08, No Iterations 2
DILUPBiCGStab:  Solving for Uy, Initial residual = 0.549023, Final residual = 0.00171907, No Iterations 3
DILUPBiCGStab:  Solving for Uz, Initial residual = 0.577247, Final residual = 0.00493776, No Iterations 2
Pressure gradient source: uncorrected Ubar = 38.88, pressure gradient = 7615.03
GAMG:  Solving for p, Initial residual = 0.371932, Final residual = 0.0349594, No Iterations 7
time step continuity errors : sum local = 2.59357e-13, global = 4.68491e-14, cumulative = -1.46898e-11
Pressure gradient source: uncorrected Ubar = 38.88, pressure gradient = 7613.41
DILUPBiCGStab:  Solving for omega, Initial residual = 1.00467e-10, Final residual = 6.74862e-13, No Iterations 1
DILUPBiCGStab:  Solving for k, Initial residual = 2.81176e-06, Final residual = 9.53463e-09, No Iterations 2
bounding k, min: 0 max: 17.4068 average: 6.16712
ExecutionTime = 172.72 s  ClockTime = 179 s

Time = 2425

DILUPBiCGStab:  Solving for Ux, Initial residual = 5.88091e-06, Final residual = 3.38866e-08, No Iterations 2
DILUPBiCGStab:  Solving for Uy, Initial residual = 0.605675, Final residual = 0.00188579, No Iterations 3
DILUPBiCGStab:  Solving for Uz, Initial residual = 0.391675, Final residual = 0.00124123, No Iterations 3
Pressure gradient source: uncorrected Ubar = 38.88, pressure gradient = 7615.07
GAMG:  Solving for p, Initial residual = 0.367857, Final residual = 0.0283097, No Iterations 9
time step continuity errors : sum local = 3.00712e-13, global = 1.79466e-13, cumulative = -1.45103e-11
Pressure gradient source: uncorrected Ubar = 38.88, pressure gradient = 7613.45
DILUPBiCGStab:  Solving for omega, Initial residual = 1.00313e-10, Final residual = 6.73856e-13, No Iterations 1
DILUPBiCGStab:  Solving for k, Initial residual = 2.80746e-06, Final residual = 9.52004e-09, No Iterations 2
bounding k, min: 0 max: 17.4069 average: 6.16709
ExecutionTime = 172.79 s  ClockTime = 179 s

Time = 2426

DILUPBiCGStab:  Solving for Ux, Initial residual = 5.87171e-06, Final residual = 3.38344e-08, No Iterations 2
DILUPBiCGStab:  Solving for Uy, Initial residual = 0.540412, Final residual = 0.00538218, No Iterations 2
DILUPBiCGStab:  Solving for Uz, Initial residual = 0.448026, Final residual = 0.00138286, No Iterations 3
Pressure gradient source: uncorrected Ubar = 38.88, pressure gradient = 7615.1
GAMG:  Solving for p, Initial residual = 0.319004, Final residual = 0.027659, No Iterations 6
time step continuity errors : sum local = 2.832e-13, global = 1.4713e-13, cumulative = -1.43632e-11
Pressure gradient source: uncorrected Ubar = 38.88, pressure gradient = 7613.49
DILUPBiCGStab:  Solving for omega, Initial residual = 1.00159e-10, Final residual = 6.72851e-13, No Iterations 1
DILUPBiCGStab:  Solving for k, Initial residual = 2.80316e-06, Final residual = 9.50548e-09, No Iterations 2
bounding k, min: 0 max: 17.407 average: 6.16706
ExecutionTime = 172.86 s  ClockTime = 179 s

Time = 2427

DILUPBiCGStab:  Solving for Ux, Initial residual = 5.86252e-06, Final residual = 3.37824e-08, No Iterations 2
DILUPBiCGStab:  Solving for Uy, Initial residual = 0.41927, Final residual = 0.00273231, No Iterations 2
DILUPBiCGStab:  Solving for Uz, Initial residual = 0.371414, Final residual = 0.00290272, No Iterations 2
Pressure gradient source: uncorrected Ubar = 38.88, pressure gradient = 7615.14
GAMG:  Solving for p, Initial residual = 0.348302, Final residual = 0.0300379, No Iterations 11
time step continuity errors : sum local = 2.50911e-13, global = -7.21153e-14, cumulative = -1.44353e-11
Pressure gradient source: uncorrected Ubar = 38.88, pressure gradient = 7613.54
DILUPBiCGStab:  Solving for omega, Initial residual = 1.00005e-10, Final residual = 6.71848e-13, No Iterations 1
DILUPBiCGStab:  Solving for k, Initial residual = 2.79888e-06, Final residual = 9.49094e-09, No Iterations 2
bounding k, min: 0 max: 17.4072 average: 6.16704
ExecutionTime = 172.93 s  ClockTime = 179 s

Time = 2428

DILUPBiCGStab:  Solving for Ux, Initial residual = 5.85335e-06, Final residual = 3.37305e-08, No Iterations 2
DILUPBiCGStab:  Solving for Uy, Initial residual = 0.702245, Final residual = 0.00197469, No Iterations 3
DILUPBiCGStab:  Solving for Uz, Initial residual = 0.690775, Final residual = 0.00676244, No Iterations 2
Pressure gradient source: uncorrected Ubar = 38.88, pressure gradient = 7615.18
GAMG:  Solving for p, Initial residual = 0.345442, Final residual = 0.0306219, No Iterations 6
time step continuity errors : sum local = 4.62218e-13, global = -2.79108e-13, cumulative = -1.47144e-11
Pressure gradient source: uncorrected Ubar = 38.88, pressure gradient = 7613.58
DILUPBiCGStab:  Solving for omega, Initial residual = 9.98516e-11, Final residual = 6.70846e-13, No Iterations 1
DILUPBiCGStab:  Solving for k, Initial residual = 2.79459e-06, Final residual = 9.47642e-09, No Iterations 2
bounding k, min: 0 max: 17.4073 average: 6.16701
ExecutionTime = 173.01 s  ClockTime = 179 s


SIMPLE solution converged in 2428 iterations

End

