/*---------------------------------------------------------------------------*\
  =========                 |
  \\      /  F ield         | OpenFOAM: The Open Source CFD Toolbox
   \\    /   O peration     | Website:  https://openfoam.org
    \\  /    A nd           | Version:  7
     \\/     M anipulation  |
\*---------------------------------------------------------------------------*/
Build  : 7-3bcbaf946ae9
Exec   : simpleFoam
Date   : Jun 26 2023
Time   : 16:26:11
Host   : "kaj-HP-ZBook-Studio-G4"
PID    : 86722
I/O    : uncollated
Case   : /home/kaj/Documents/thesis/inversion/DATA/Duct-Vinuesa/rans/AR_1_Ret_180/00Baseline/beta11
nProcs : 1
sigFpe : Enabling floating point exception trapping (FOAM_SIGFPE).
fileModificationChecking : Monitoring run-time modified files using timeStampMaster (fileModificationSkew 10)
allowSystemOperations : Allowing user-supplied system call operations

// * * * * * * * * * * * * * * * * * * * * * * * * * * * * * * * * * * * * * //
Create time

Using #calcEntry at line 4 in file "/home/kaj/Documents/thesis/inversion/DATA/Duct-Vinuesa/rans/AR_1_Ret_180/00Baseline/beta11/system/controlDict.functions.convergenceProbes"
Using #codeStream with "/home/kaj/Documents/thesis/inversion/DATA/Duct-Vinuesa/rans/AR_1_Ret_180/00Baseline/beta11/dynamicCode/platforms/linux64GccDPInt32Opt/lib/libcodeStream_e305d05308d1ade03f6eb88824101ddb2eba3278.so"
Creating new library in "dynamicCode/_e305d05308d1ade03f6eb88824101ddb2eba3278/platforms/linux64GccDPInt32Opt/lib/libcodeStream_e305d05308d1ade03f6eb88824101ddb2eba3278.so"
Invoking "wmake -s libso /home/kaj/Documents/thesis/inversion/DATA/Duct-Vinuesa/rans/AR_1_Ret_180/00Baseline/beta11/dynamicCode/_e305d05308d1ade03f6eb88824101ddb2eba3278"
wmake libso /home/kaj/Documents/thesis/inversion/DATA/Duct-Vinuesa/rans/AR_1_Ret_180/00Baseline/beta11/dynamicCode/_e305d05308d1ade03f6eb88824101ddb2eba3278
    wmkdep: codeStreamTemplate.C
    Ctoo: codeStreamTemplate.C
    ld: /home/kaj/Documents/thesis/inversion/DATA/Duct-Vinuesa/rans/AR_1_Ret_180/00Baseline/beta11/dynamicCode/_e305d05308d1ade03f6eb88824101ddb2eba3278/../platforms/linux64GccDPInt32Opt/lib/libcodeStream_e305d05308d1ade03f6eb88824101ddb2eba3278.so
Using #calcEntry at line 5 in file "/home/kaj/Documents/thesis/inversion/DATA/Duct-Vinuesa/rans/AR_1_Ret_180/00Baseline/beta11/system/controlDict.functions.convergenceProbes"
Using #codeStream with "/home/kaj/Documents/thesis/inversion/DATA/Duct-Vinuesa/rans/AR_1_Ret_180/00Baseline/beta11/dynamicCode/platforms/linux64GccDPInt32Opt/lib/libcodeStream_8f3c4192690bcc53a34cf723aeeab9b62f638bd7.so"
Creating new library in "dynamicCode/_8f3c4192690bcc53a34cf723aeeab9b62f638bd7/platforms/linux64GccDPInt32Opt/lib/libcodeStream_8f3c4192690bcc53a34cf723aeeab9b62f638bd7.so"
Invoking "wmake -s libso /home/kaj/Documents/thesis/inversion/DATA/Duct-Vinuesa/rans/AR_1_Ret_180/00Baseline/beta11/dynamicCode/_8f3c4192690bcc53a34cf723aeeab9b62f638bd7"
wmake libso /home/kaj/Documents/thesis/inversion/DATA/Duct-Vinuesa/rans/AR_1_Ret_180/00Baseline/beta11/dynamicCode/_8f3c4192690bcc53a34cf723aeeab9b62f638bd7
    wmkdep: codeStreamTemplate.C
    Ctoo: codeStreamTemplate.C
    ld: /home/kaj/Documents/thesis/inversion/DATA/Duct-Vinuesa/rans/AR_1_Ret_180/00Baseline/beta11/dynamicCode/_8f3c4192690bcc53a34cf723aeeab9b62f638bd7/../platforms/linux64GccDPInt32Opt/lib/libcodeStream_8f3c4192690bcc53a34cf723aeeab9b62f638bd7.so
Using #calcEntry at line 6 in file "/home/kaj/Documents/thesis/inversion/DATA/Duct-Vinuesa/rans/AR_1_Ret_180/00Baseline/beta11/system/controlDict.functions.convergenceProbes"
Using #codeStream with "/home/kaj/Documents/thesis/inversion/DATA/Duct-Vinuesa/rans/AR_1_Ret_180/00Baseline/beta11/dynamicCode/platforms/linux64GccDPInt32Opt/lib/libcodeStream_a2727cef0b180b3b2f6a19fffe5ff7cc3de40b59.so"
Creating new library in "dynamicCode/_a2727cef0b180b3b2f6a19fffe5ff7cc3de40b59/platforms/linux64GccDPInt32Opt/lib/libcodeStream_a2727cef0b180b3b2f6a19fffe5ff7cc3de40b59.so"
Invoking "wmake -s libso /home/kaj/Documents/thesis/inversion/DATA/Duct-Vinuesa/rans/AR_1_Ret_180/00Baseline/beta11/dynamicCode/_a2727cef0b180b3b2f6a19fffe5ff7cc3de40b59"
wmake libso /home/kaj/Documents/thesis/inversion/DATA/Duct-Vinuesa/rans/AR_1_Ret_180/00Baseline/beta11/dynamicCode/_a2727cef0b180b3b2f6a19fffe5ff7cc3de40b59
    wmkdep: codeStreamTemplate.C
    Ctoo: codeStreamTemplate.C
    ld: /home/kaj/Documents/thesis/inversion/DATA/Duct-Vinuesa/rans/AR_1_Ret_180/00Baseline/beta11/dynamicCode/_a2727cef0b180b3b2f6a19fffe5ff7cc3de40b59/../platforms/linux64GccDPInt32Opt/lib/libcodeStream_a2727cef0b180b3b2f6a19fffe5ff7cc3de40b59.so
Using #calcEntry at line 7 in file "/home/kaj/Documents/thesis/inversion/DATA/Duct-Vinuesa/rans/AR_1_Ret_180/00Baseline/beta11/system/controlDict.functions.convergenceProbes"
Using #codeStream with "/home/kaj/Documents/thesis/inversion/DATA/Duct-Vinuesa/rans/AR_1_Ret_180/00Baseline/beta11/dynamicCode/platforms/linux64GccDPInt32Opt/lib/libcodeStream_08de2c874f28fd753ed75007aeeceda0c9d51543.so"
Creating new library in "dynamicCode/_08de2c874f28fd753ed75007aeeceda0c9d51543/platforms/linux64GccDPInt32Opt/lib/libcodeStream_08de2c874f28fd753ed75007aeeceda0c9d51543.so"
Invoking "wmake -s libso /home/kaj/Documents/thesis/inversion/DATA/Duct-Vinuesa/rans/AR_1_Ret_180/00Baseline/beta11/dynamicCode/_08de2c874f28fd753ed75007aeeceda0c9d51543"
wmake libso /home/kaj/Documents/thesis/inversion/DATA/Duct-Vinuesa/rans/AR_1_Ret_180/00Baseline/beta11/dynamicCode/_08de2c874f28fd753ed75007aeeceda0c9d51543
    wmkdep: codeStreamTemplate.C
    Ctoo: codeStreamTemplate.C
    ld: /home/kaj/Documents/thesis/inversion/DATA/Duct-Vinuesa/rans/AR_1_Ret_180/00Baseline/beta11/dynamicCode/_08de2c874f28fd753ed75007aeeceda0c9d51543/../platforms/linux64GccDPInt32Opt/lib/libcodeStream_08de2c874f28fd753ed75007aeeceda0c9d51543.so
Using #calcEntry at line 8 in file "/home/kaj/Documents/thesis/inversion/DATA/Duct-Vinuesa/rans/AR_1_Ret_180/00Baseline/beta11/system/controlDict.functions.convergenceProbes"
Using #codeStream with "/home/kaj/Documents/thesis/inversion/DATA/Duct-Vinuesa/rans/AR_1_Ret_180/00Baseline/beta11/dynamicCode/platforms/linux64GccDPInt32Opt/lib/libcodeStream_113c0be5b9de49cf46d2b5f510dd43edc0e2aa39.so"
Creating new library in "dynamicCode/_113c0be5b9de49cf46d2b5f510dd43edc0e2aa39/platforms/linux64GccDPInt32Opt/lib/libcodeStream_113c0be5b9de49cf46d2b5f510dd43edc0e2aa39.so"
Invoking "wmake -s libso /home/kaj/Documents/thesis/inversion/DATA/Duct-Vinuesa/rans/AR_1_Ret_180/00Baseline/beta11/dynamicCode/_113c0be5b9de49cf46d2b5f510dd43edc0e2aa39"
wmake libso /home/kaj/Documents/thesis/inversion/DATA/Duct-Vinuesa/rans/AR_1_Ret_180/00Baseline/beta11/dynamicCode/_113c0be5b9de49cf46d2b5f510dd43edc0e2aa39
    wmkdep: codeStreamTemplate.C
    Ctoo: codeStreamTemplate.C
    ld: /home/kaj/Documents/thesis/inversion/DATA/Duct-Vinuesa/rans/AR_1_Ret_180/00Baseline/beta11/dynamicCode/_113c0be5b9de49cf46d2b5f510dd43edc0e2aa39/../platforms/linux64GccDPInt32Opt/lib/libcodeStream_113c0be5b9de49cf46d2b5f510dd43edc0e2aa39.so
Using #calcEntry at line 9 in file "/home/kaj/Documents/thesis/inversion/DATA/Duct-Vinuesa/rans/AR_1_Ret_180/00Baseline/beta11/system/controlDict.functions.convergenceProbes"
Using #codeStream with "/home/kaj/Documents/thesis/inversion/DATA/Duct-Vinuesa/rans/AR_1_Ret_180/00Baseline/beta11/dynamicCode/platforms/linux64GccDPInt32Opt/lib/libcodeStream_5fdfd6a3e530880c1cc1e3743cb143548bc9ec5d.so"
Creating new library in "dynamicCode/_5fdfd6a3e530880c1cc1e3743cb143548bc9ec5d/platforms/linux64GccDPInt32Opt/lib/libcodeStream_5fdfd6a3e530880c1cc1e3743cb143548bc9ec5d.so"
Invoking "wmake -s libso /home/kaj/Documents/thesis/inversion/DATA/Duct-Vinuesa/rans/AR_1_Ret_180/00Baseline/beta11/dynamicCode/_5fdfd6a3e530880c1cc1e3743cb143548bc9ec5d"
wmake libso /home/kaj/Documents/thesis/inversion/DATA/Duct-Vinuesa/rans/AR_1_Ret_180/00Baseline/beta11/dynamicCode/_5fdfd6a3e530880c1cc1e3743cb143548bc9ec5d
    wmkdep: codeStreamTemplate.C
    Ctoo: codeStreamTemplate.C
    ld: /home/kaj/Documents/thesis/inversion/DATA/Duct-Vinuesa/rans/AR_1_Ret_180/00Baseline/beta11/dynamicCode/_5fdfd6a3e530880c1cc1e3743cb143548bc9ec5d/../platforms/linux64GccDPInt32Opt/lib/libcodeStream_5fdfd6a3e530880c1cc1e3743cb143548bc9ec5d.so
Create mesh for time = 0


SIMPLE: Convergence criteria found
        k: tolerance 5e-06
        omega: tolerance 1e-10

Reading field p

Reading field U

Using #calcEntry at line 19 in file "/home/kaj/Documents/thesis/inversion/DATA/Duct-Vinuesa/rans/AR_1_Ret_180/00Baseline/beta11/0/U"
Using #codeStream with "/home/kaj/Documents/thesis/inversion/DATA/Duct-Vinuesa/rans/AR_1_Ret_180/00Baseline/beta11/dynamicCode/platforms/linux64GccDPInt32Opt/lib/libcodeStream_719e16a4eee744646df77bb1fb8ceab6fd60b8a7.so"
Creating new library in "dynamicCode/_719e16a4eee744646df77bb1fb8ceab6fd60b8a7/platforms/linux64GccDPInt32Opt/lib/libcodeStream_719e16a4eee744646df77bb1fb8ceab6fd60b8a7.so"
Invoking "wmake -s libso /home/kaj/Documents/thesis/inversion/DATA/Duct-Vinuesa/rans/AR_1_Ret_180/00Baseline/beta11/dynamicCode/_719e16a4eee744646df77bb1fb8ceab6fd60b8a7"
wmake libso /home/kaj/Documents/thesis/inversion/DATA/Duct-Vinuesa/rans/AR_1_Ret_180/00Baseline/beta11/dynamicCode/_719e16a4eee744646df77bb1fb8ceab6fd60b8a7
    wmkdep: codeStreamTemplate.C
    Ctoo: codeStreamTemplate.C
    ld: /home/kaj/Documents/thesis/inversion/DATA/Duct-Vinuesa/rans/AR_1_Ret_180/00Baseline/beta11/dynamicCode/_719e16a4eee744646df77bb1fb8ceab6fd60b8a7/../platforms/linux64GccDPInt32Opt/lib/libcodeStream_719e16a4eee744646df77bb1fb8ceab6fd60b8a7.so
Reading/calculating face flux field phi

Selecting incompressible transport model Newtonian
Selecting turbulence model type RAS
Selecting RAS turbulence model kOmegaSST
Selecting patchDistMethod meshWave
bounding k, min: 0 max: 0.02 average: 0.02
RAS
{
    RASModel        kOmegaSST;
    turbulence      on;
    printCoeffs     on;
    alphaK1         0.85;
    alphaK2         1;
    alphaOmega1     0.5;
    alphaOmega2     0.856;
    gamma1          0.555556;
    gamma2          0.44;
    beta1           0.075;
    beta2           0.0828;
    betaStar        0.09;
    a1              0.31;
    b1              1;
    c1              10;
    F3              false;
}

No MRF models present

Creating finite volume options from "system/fvOptions"

Using #calcEntry at line 20 in file "/home/kaj/Documents/thesis/inversion/DATA/Duct-Vinuesa/rans/AR_1_Ret_180/00Baseline/beta11/system/fvOptions"
Selecting finite volume options model type meanVelocityForce
    Source: meanVelocity1
    - selecting all cells
    - selected 2209 cell(s) with volume 1e-09
    Initial pressure gradient = 0


Starting time loop

Time = 1

DILUPBiCGStab:  Solving for Ux, Initial residual = 1, Final residual = 0.00974983, No Iterations 1
DILUPBiCGStab:  Solving for Uy, Initial residual = 0.875431, Final residual = 0.00773683, No Iterations 1
DILUPBiCGStab:  Solving for Uz, Initial residual = 0.875431, Final residual = 0.00773683, No Iterations 1
Pressure gradient source: uncorrected Ubar = 37.4871, pressure gradient = 62370
GAMG:  Solving for p, Initial residual = 0.107229, Final residual = 0.00914468, No Iterations 3
time step continuity errors : sum local = 7.54802e-15, global = -1.75776e-15, cumulative = -1.75776e-15
Pressure gradient source: uncorrected Ubar = 37.4979, pressure gradient = 10302.5
DILUPBiCGStab:  Solving for omega, Initial residual = 0.164209, Final residual = 0.00152549, No Iterations 1
DILUPBiCGStab:  Solving for k, Initial residual = 1, Final residual = 0.00942065, No Iterations 1
bounding k, min: 0 max: 0.0414387 average: 0.022925
ExecutionTime = 0.05 s  ClockTime = 6 s

Time = 2

DILUPBiCGStab:  Solving for Ux, Initial residual = 0.862172, Final residual = 0.00260846, No Iterations 1
DILUPBiCGStab:  Solving for Uy, Initial residual = 0.955734, Final residual = 0.0041486, No Iterations 3
DILUPBiCGStab:  Solving for Uz, Initial residual = 0.955634, Final residual = 0.00933474, No Iterations 2
Pressure gradient source: uncorrected Ubar = 37.432, pressure gradient = 31604.7
GAMG:  Solving for p, Initial residual = 0.794064, Final residual = 0.0396032, No Iterations 4
time step continuity errors : sum local = 2.85835e-12, global = 2.01478e-13, cumulative = 1.9972e-13
Pressure gradient source: uncorrected Ubar = 37.5022, pressure gradient = 9609.11
DILUPBiCGStab:  Solving for omega, Initial residual = 0.0716485, Final residual = 2.39537e-05, No Iterations 1
DILUPBiCGStab:  Solving for k, Initial residual = 0.952921, Final residual = 0.00134412, No Iterations 1
bounding k, min: 0 max: 0.0200584 average: 0.0165142
ExecutionTime = 0.06 s  ClockTime = 6 s

Time = 3

DILUPBiCGStab:  Solving for Ux, Initial residual = 0.110679, Final residual = 0.000882742, No Iterations 2
DILUPBiCGStab:  Solving for Uy, Initial residual = 0.909131, Final residual = 0.00550309, No Iterations 3
DILUPBiCGStab:  Solving for Uz, Initial residual = 0.806636, Final residual = 0.00616946, No Iterations 3
Pressure gradient source: uncorrected Ubar = 37.7547, pressure gradient = -21642.5
GAMG:  Solving for p, Initial residual = 0.793791, Final residual = 0.0401996, No Iterations 4
time step continuity errors : sum local = 4.23927e-12, global = -4.90492e-15, cumulative = 1.94816e-13
Pressure gradient source: uncorrected Ubar = 37.5593, pressure gradient = 2328.46
DILUPBiCGStab:  Solving for omega, Initial residual = 0.00407708, Final residual = 3.39989e-06, No Iterations 1
DILUPBiCGStab:  Solving for k, Initial residual = 0.206956, Final residual = 0.0007031, No Iterations 1
bounding k, min: 0 max: 0.0200397 average: 0.0138138
ExecutionTime = 0.08 s  ClockTime = 6 s

Time = 4

DILUPBiCGStab:  Solving for Ux, Initial residual = 0.0478262, Final residual = 0.000259482, No Iterations 2
DILUPBiCGStab:  Solving for Uy, Initial residual = 0.903866, Final residual = 0.00624294, No Iterations 3
DILUPBiCGStab:  Solving for Uz, Initial residual = 0.828302, Final residual = 0.00422289, No Iterations 4
Pressure gradient source: uncorrected Ubar = 37.4366, pressure gradient = 9976.74
GAMG:  Solving for p, Initial residual = 0.80412, Final residual = 0.0397949, No Iterations 4
time step continuity errors : sum local = 3.60897e-12, global = -1.67746e-14, cumulative = 1.78041e-13
Pressure gradient source: uncorrected Ubar = 37.4998, pressure gradient = 2350.72
DILUPBiCGStab:  Solving for omega, Initial residual = 0.00142952, Final residual = 1.20013e-06, No Iterations 1
DILUPBiCGStab:  Solving for k, Initial residual = 0.0531125, Final residual = 0.000498067, No Iterations 1
bounding k, min: 0 max: 0.0201721 average: 0.0123332
ExecutionTime = 0.09 s  ClockTime = 6 s

Time = 5

DILUPBiCGStab:  Solving for Ux, Initial residual = 0.0312018, Final residual = 0.000247405, No Iterations 2
DILUPBiCGStab:  Solving for Uy, Initial residual = 0.722849, Final residual = 0.00511238, No Iterations 3
DILUPBiCGStab:  Solving for Uz, Initial residual = 0.646601, Final residual = 0.00533477, No Iterations 3
Pressure gradient source: uncorrected Ubar = 37.4437, pressure gradient = 8855.63
GAMG:  Solving for p, Initial residual = 0.704902, Final residual = 0.0475358, No Iterations 4
time step continuity errors : sum local = 2.6855e-12, global = 5.97161e-15, cumulative = 1.84013e-13
Pressure gradient source: uncorrected Ubar = 37.5012, pressure gradient = 2214.27
DILUPBiCGStab:  Solving for omega, Initial residual = 0.000482027, Final residual = 4.45573e-07, No Iterations 1
DILUPBiCGStab:  Solving for k, Initial residual = 0.0186299, Final residual = 4.11955e-05, No Iterations 1
bounding k, min: 0 max: 0.0205058 average: 0.0112807
ExecutionTime = 0.1 s  ClockTime = 6 s

Time = 6

DILUPBiCGStab:  Solving for Ux, Initial residual = 0.0239242, Final residual = 0.000226277, No Iterations 2
DILUPBiCGStab:  Solving for Uy, Initial residual = 0.509651, Final residual = 0.00256122, No Iterations 4
DILUPBiCGStab:  Solving for Uz, Initial residual = 0.477052, Final residual = 0.00220273, No Iterations 4
Pressure gradient source: uncorrected Ubar = 37.4356, pressure gradient = 9583.97
GAMG:  Solving for p, Initial residual = 0.624369, Final residual = 0.0418602, No Iterations 4
time step continuity errors : sum local = 1.8983e-12, global = -2.71802e-14, cumulative = 1.56832e-13
Pressure gradient source: uncorrected Ubar = 37.4997, pressure gradient = 2253.01
DILUPBiCGStab:  Solving for omega, Initial residual = 0.000194556, Final residual = 2.30473e-07, No Iterations 1
DILUPBiCGStab:  Solving for k, Initial residual = 0.00856005, Final residual = 4.28397e-05, No Iterations 1
bounding k, min: 0 max: 0.0209018 average: 0.0105629
ExecutionTime = 0.11 s  ClockTime = 6 s

Time = 7

DILUPBiCGStab:  Solving for Ux, Initial residual = 0.0197626, Final residual = 0.000147455, No Iterations 2
DILUPBiCGStab:  Solving for Uy, Initial residual = 0.78612, Final residual = 0.00718948, No Iterations 3
DILUPBiCGStab:  Solving for Uz, Initial residual = 0.706859, Final residual = 0.00706403, No Iterations 3
Pressure gradient source: uncorrected Ubar = 37.4598, pressure gradient = 6816.25
GAMG:  Solving for p, Initial residual = 0.669251, Final residual = 0.0415949, No Iterations 4
time step continuity errors : sum local = 1.70588e-12, global = -4.93198e-14, cumulative = 1.07512e-13
Pressure gradient source: uncorrected Ubar = 37.4995, pressure gradient = 2313.89
DILUPBiCGStab:  Solving for omega, Initial residual = 7.33978e-05, Final residual = 1.17715e-07, No Iterations 1
DILUPBiCGStab:  Solving for k, Initial residual = 0.00499569, Final residual = 1.3633e-05, No Iterations 2
bounding k, min: 0 max: 0.0215685 average: 0.0100744
ExecutionTime = 0.12 s  ClockTime = 6 s

Time = 8

DILUPBiCGStab:  Solving for Ux, Initial residual = 0.0170183, Final residual = 0.000149478, No Iterations 2
DILUPBiCGStab:  Solving for Uy, Initial residual = 0.768591, Final residual = 0.00583563, No Iterations 3
DILUPBiCGStab:  Solving for Uz, Initial residual = 0.62707, Final residual = 0.00500975, No Iterations 3
Pressure gradient source: uncorrected Ubar = 37.4577, pressure gradient = 7094.2
GAMG:  Solving for p, Initial residual = 0.589321, Final residual = 0.0534823, No Iterations 4
time step continuity errors : sum local = 1.65374e-12, global = -9.2603e-14, cumulative = 1.49094e-14
Pressure gradient source: uncorrected Ubar = 37.4993, pressure gradient = 2397.85
DILUPBiCGStab:  Solving for omega, Initial residual = 2.95629e-05, Final residual = 9.22591e-08, No Iterations 1
DILUPBiCGStab:  Solving for k, Initial residual = 0.003387, Final residual = 2.10219e-05, No Iterations 2
bounding k, min: 0 max: 0.0224687 average: 0.00976389
ExecutionTime = 0.13 s  ClockTime = 6 s

Time = 9

DILUPBiCGStab:  Solving for Ux, Initial residual = 0.0150425, Final residual = 8.79675e-05, No Iterations 3
DILUPBiCGStab:  Solving for Uy, Initial residual = 0.475528, Final residual = 0.00465266, No Iterations 3
DILUPBiCGStab:  Solving for Uz, Initial residual = 0.334407, Final residual = 0.00279408, No Iterations 3
Pressure gradient source: uncorrected Ubar = 37.4781, pressure gradient = 4858.53
GAMG:  Solving for p, Initial residual = 0.498024, Final residual = 0.0453573, No Iterations 4
time step continuity errors : sum local = 1.01373e-12, global = -1.79284e-14, cumulative = -3.01893e-15
Pressure gradient source: uncorrected Ubar = 37.4993, pressure gradient = 2476.21
DILUPBiCGStab:  Solving for omega, Initial residual = 1.13209e-05, Final residual = 7.04272e-08, No Iterations 1
DILUPBiCGStab:  Solving for k, Initial residual = 0.00253474, Final residual = 6.06674e-06, No Iterations 2
bounding k, min: 0 max: 0.0236202 average: 0.00959779
ExecutionTime = 0.14 s  ClockTime = 6 s

Time = 10

DILUPBiCGStab:  Solving for Ux, Initial residual = 0.0135135, Final residual = 8.9206e-05, No Iterations 3
DILUPBiCGStab:  Solving for Uy, Initial residual = 0.466636, Final residual = 0.00249281, No Iterations 4
DILUPBiCGStab:  Solving for Uz, Initial residual = 0.449579, Final residual = 0.00430385, No Iterations 3
Pressure gradient source: uncorrected Ubar = 37.4772, pressure gradient = 5028.63
GAMG:  Solving for p, Initial residual = 0.452976, Final residual = 0.0388696, No Iterations 4
time step continuity errors : sum local = 8.49064e-13, global = -8.26619e-14, cumulative = -8.56808e-14
Pressure gradient source: uncorrected Ubar = 37.4992, pressure gradient = 2568.57
DILUPBiCGStab:  Solving for omega, Initial residual = 5.18769e-06, Final residual = 8.26675e-09, No Iterations 1
DILUPBiCGStab:  Solving for k, Initial residual = 0.00207996, Final residual = 8.26028e-06, No Iterations 2
bounding k, min: 0 max: 0.025084 average: 0.00954584
ExecutionTime = 0.15 s  ClockTime = 6 s

Time = 11

DILUPBiCGStab:  Solving for Ux, Initial residual = 0.0123078, Final residual = 8.87369e-05, No Iterations 3
DILUPBiCGStab:  Solving for Uy, Initial residual = 0.584063, Final residual = 0.00265139, No Iterations 4
DILUPBiCGStab:  Solving for Uz, Initial residual = 0.558028, Final residual = 0.00357349, No Iterations 3
Pressure gradient source: uncorrected Ubar = 37.4763, pressure gradient = 5223.37
GAMG:  Solving for p, Initial residual = 0.430558, Final residual = 0.0260125, No Iterations 5
time step continuity errors : sum local = 5.86828e-13, global = 4.62144e-14, cumulative = -3.94665e-14
Pressure gradient source: uncorrected Ubar = 37.499, pressure gradient = 2677.05
DILUPBiCGStab:  Solving for omega, Initial residual = 2.15531e-06, Final residual = 7.30258e-09, No Iterations 1
DILUPBiCGStab:  Solving for k, Initial residual = 0.00184959, Final residual = 1.1018e-05, No Iterations 2
bounding k, min: 0 max: 0.0268864 average: 0.00958953
ExecutionTime = 0.16 s  ClockTime = 6 s

Time = 12

DILUPBiCGStab:  Solving for Ux, Initial residual = 0.0113126, Final residual = 8.50218e-05, No Iterations 3
DILUPBiCGStab:  Solving for Uy, Initial residual = 0.401549, Final residual = 0.00295596, No Iterations 3
DILUPBiCGStab:  Solving for Uz, Initial residual = 0.346317, Final residual = 0.00173365, No Iterations 4
Pressure gradient source: uncorrected Ubar = 37.4742, pressure gradient = 5609.32
GAMG:  Solving for p, Initial residual = 0.380053, Final residual = 0.0255383, No Iterations 5
time step continuity errors : sum local = 5.82388e-13, global = 7.46027e-14, cumulative = 3.51362e-14
Pressure gradient source: uncorrected Ubar = 37.4987, pressure gradient = 2828.59
DILUPBiCGStab:  Solving for omega, Initial residual = 1.3888e-06, Final residual = 7.15789e-09, No Iterations 1
DILUPBiCGStab:  Solving for k, Initial residual = 0.00176225, Final residual = 1.28404e-05, No Iterations 2
bounding k, min: 0 max: 0.0290016 average: 0.00972597
ExecutionTime = 0.17 s  ClockTime = 6 s

Time = 13

DILUPBiCGStab:  Solving for Ux, Initial residual = 0.010497, Final residual = 8.60768e-05, No Iterations 3
DILUPBiCGStab:  Solving for Uy, Initial residual = 0.324225, Final residual = 0.00173331, No Iterations 4
DILUPBiCGStab:  Solving for Uz, Initial residual = 0.336401, Final residual = 0.00198629, No Iterations 4
Pressure gradient source: uncorrected Ubar = 37.4797, pressure gradient = 5122.16
GAMG:  Solving for p, Initial residual = 0.311424, Final residual = 0.0181831, No Iterations 5
time step continuity errors : sum local = 4.54617e-13, global = 1.02696e-13, cumulative = 1.37833e-13
Pressure gradient source: uncorrected Ubar = 37.4994, pressure gradient = 2898.34
DILUPBiCGStab:  Solving for omega, Initial residual = 7.74621e-07, Final residual = 7.06368e-09, No Iterations 1
DILUPBiCGStab:  Solving for k, Initial residual = 0.00176987, Final residual = 1.66959e-05, No Iterations 2
bounding k, min: 0 max: 0.0316339 average: 0.00995171
ExecutionTime = 0.18 s  ClockTime = 6 s

Time = 14

DILUPBiCGStab:  Solving for Ux, Initial residual = 0.00978521, Final residual = 8.3314e-05, No Iterations 3
DILUPBiCGStab:  Solving for Uy, Initial residual = 0.324253, Final residual = 0.00139132, No Iterations 4
DILUPBiCGStab:  Solving for Uz, Initial residual = 0.328903, Final residual = 0.00165109, No Iterations 4
Pressure gradient source: uncorrected Ubar = 37.4754, pressure gradient = 5706.19
GAMG:  Solving for p, Initial residual = 0.278561, Final residual = 0.0249556, No Iterations 4
time step continuity errors : sum local = 3.93795e-13, global = -9.45318e-14, cumulative = 4.33009e-14
Pressure gradient source: uncorrected Ubar = 37.4988, pressure gradient = 3035
DILUPBiCGStab:  Solving for omega, Initial residual = 6.91881e-07, Final residual = 1.78798e-09, No Iterations 2
DILUPBiCGStab:  Solving for k, Initial residual = 0.00183209, Final residual = 5.24605e-06, No Iterations 3
bounding k, min: 0 max: 0.0344926 average: 0.0102646
ExecutionTime = 0.2 s  ClockTime = 6 s

Time = 15

DILUPBiCGStab:  Solving for Ux, Initial residual = 0.00917989, Final residual = 8.51902e-05, No Iterations 3
DILUPBiCGStab:  Solving for Uy, Initial residual = 0.315349, Final residual = 0.00295961, No Iterations 3
DILUPBiCGStab:  Solving for Uz, Initial residual = 0.354862, Final residual = 0.0019377, No Iterations 4
Pressure gradient source: uncorrected Ubar = 37.4799, pressure gradient = 5317.08
GAMG:  Solving for p, Initial residual = 0.282246, Final residual = 0.019393, No Iterations 5
time step continuity errors : sum local = 3.25384e-13, global = -8.88856e-15, cumulative = 3.44123e-14
Pressure gradient source: uncorrected Ubar = 37.4994, pressure gradient = 3106.95
DILUPBiCGStab:  Solving for omega, Initial residual = 5.05076e-07, Final residual = 1.86351e-09, No Iterations 2
DILUPBiCGStab:  Solving for k, Initial residual = 0.00191722, Final residual = 6.69138e-06, No Iterations 3
bounding k, min: 0 max: 0.0378461 average: 0.0106591
ExecutionTime = 0.21 s  ClockTime = 6 s

Time = 16

DILUPBiCGStab:  Solving for Ux, Initial residual = 0.0086508, Final residual = 3.79754e-05, No Iterations 3
DILUPBiCGStab:  Solving for Uy, Initial residual = 0.325197, Final residual = 0.00189136, No Iterations 4
DILUPBiCGStab:  Solving for Uz, Initial residual = 0.33101, Final residual = 0.003289, No Iterations 3
Pressure gradient source: uncorrected Ubar = 37.4845, pressure gradient = 4853.28
GAMG:  Solving for p, Initial residual = 0.223535, Final residual = 0.016621, No Iterations 5
time step continuity errors : sum local = 2.98934e-13, global = -3.95104e-15, cumulative = 3.04613e-14
Pressure gradient source: uncorrected Ubar = 37.4996, pressure gradient = 3151.6
DILUPBiCGStab:  Solving for omega, Initial residual = 4.96019e-07, Final residual = 2.02952e-09, No Iterations 2
DILUPBiCGStab:  Solving for k, Initial residual = 0.00200949, Final residual = 8.81207e-06, No Iterations 3
bounding k, min: 0 max: 0.0414606 average: 0.0111293
ExecutionTime = 0.22 s  ClockTime = 6 s

Time = 17

DILUPBiCGStab:  Solving for Ux, Initial residual = 0.00817747, Final residual = 3.89361e-05, No Iterations 3
DILUPBiCGStab:  Solving for Uy, Initial residual = 0.254768, Final residual = 0.00130156, No Iterations 4
DILUPBiCGStab:  Solving for Uz, Initial residual = 0.241142, Final residual = 0.00176062, No Iterations 4
Pressure gradient source: uncorrected Ubar = 37.4812, pressure gradient = 5271.31
GAMG:  Solving for p, Initial residual = 0.206778, Final residual = 0.0122518, No Iterations 5
time step continuity errors : sum local = 1.45931e-13, global = -9.31535e-15, cumulative = 2.11459e-14
Pressure gradient source: uncorrected Ubar = 37.4992, pressure gradient = 3241.22
DILUPBiCGStab:  Solving for omega, Initial residual = 4.30853e-07, Final residual = 2.13418e-09, No Iterations 2
DILUPBiCGStab:  Solving for k, Initial residual = 0.00210314, Final residual = 1.04587e-05, No Iterations 3
bounding k, min: 0 max: 0.045409 average: 0.011672
ExecutionTime = 0.23 s  ClockTime = 6 s

Time = 18

DILUPBiCGStab:  Solving for Ux, Initial residual = 0.00774539, Final residual = 3.81758e-05, No Iterations 3
DILUPBiCGStab:  Solving for Uy, Initial residual = 0.267188, Final residual = 0.00250086, No Iterations 3
DILUPBiCGStab:  Solving for Uz, Initial residual = 0.324875, Final residual = 0.00191623, No Iterations 4
Pressure gradient source: uncorrected Ubar = 37.4772, pressure gradient = 5857.5
GAMG:  Solving for p, Initial residual = 0.190112, Final residual = 0.0187382, No Iterations 4
time step continuity errors : sum local = 3.93277e-13, global = 2.07146e-13, cumulative = 2.28292e-13
Pressure gradient source: uncorrected Ubar = 37.4986, pressure gradient = 3402.69
DILUPBiCGStab:  Solving for omega, Initial residual = 3.97346e-07, Final residual = 2.24552e-09, No Iterations 2
DILUPBiCGStab:  Solving for k, Initial residual = 0.00219661, Final residual = 1.19532e-05, No Iterations 3
bounding k, min: 0 max: 0.0498653 average: 0.0122849
ExecutionTime = 0.24 s  ClockTime = 6 s

Time = 19

DILUPBiCGStab:  Solving for Ux, Initial residual = 0.00737727, Final residual = 4.16768e-05, No Iterations 3
DILUPBiCGStab:  Solving for Uy, Initial residual = 0.237342, Final residual = 0.00120169, No Iterations 4
DILUPBiCGStab:  Solving for Uz, Initial residual = 0.283899, Final residual = 0.00197881, No Iterations 4
Pressure gradient source: uncorrected Ubar = 37.4883, pressure gradient = 4719.66
GAMG:  Solving for p, Initial residual = 0.173209, Final residual = 0.0110455, No Iterations 5
time step continuity errors : sum local = 1.70845e-13, global = -6.54955e-14, cumulative = 1.62796e-13
Pressure gradient source: uncorrected Ubar = 37.5, pressure gradient = 3404.2
DILUPBiCGStab:  Solving for omega, Initial residual = 3.58899e-07, Final residual = 2.33148e-09, No Iterations 2
DILUPBiCGStab:  Solving for k, Initial residual = 0.00227643, Final residual = 1.34678e-05, No Iterations 3
bounding k, min: 0 max: 0.0545597 average: 0.0129627
ExecutionTime = 0.26 s  ClockTime = 6 s

Time = 20

DILUPBiCGStab:  Solving for Ux, Initial residual = 0.00701538, Final residual = 3.9879e-05, No Iterations 3
DILUPBiCGStab:  Solving for Uy, Initial residual = 0.213709, Final residual = 0.00128204, No Iterations 4
DILUPBiCGStab:  Solving for Uz, Initial residual = 0.234299, Final residual = 0.00132318, No Iterations 4
Pressure gradient source: uncorrected Ubar = 37.4785, pressure gradient = 5883.96
GAMG:  Solving for p, Initial residual = 0.159496, Final residual = 0.00986085, No Iterations 5
time step continuity errors : sum local = 3.58713e-13, global = -1.70681e-13, cumulative = -7.88486e-15
Pressure gradient source: uncorrected Ubar = 37.4987, pressure gradient = 3551.87
DILUPBiCGStab:  Solving for omega, Initial residual = 3.29733e-07, Final residual = 2.3939e-09, No Iterations 2
DILUPBiCGStab:  Solving for k, Initial residual = 0.00235438, Final residual = 1.42113e-05, No Iterations 3
bounding k, min: 0 max: 0.0596025 average: 0.0137056
ExecutionTime = 0.27 s  ClockTime = 6 s

Time = 21

DILUPBiCGStab:  Solving for Ux, Initial residual = 0.00669136, Final residual = 3.99354e-05, No Iterations 3
DILUPBiCGStab:  Solving for Uy, Initial residual = 0.197304, Final residual = 0.00085462, No Iterations 4
DILUPBiCGStab:  Solving for Uz, Initial residual = 0.27652, Final residual = 0.00161522, No Iterations 4
Pressure gradient source: uncorrected Ubar = 37.4818, pressure gradient = 5658.91
GAMG:  Solving for p, Initial residual = 0.16682, Final residual = 0.0165246, No Iterations 4
time step continuity errors : sum local = 4.55961e-13, global = -2.76269e-13, cumulative = -2.84154e-13
Pressure gradient source: uncorrected Ubar = 37.499, pressure gradient = 3664.92
DILUPBiCGStab:  Solving for omega, Initial residual = 3.02061e-07, Final residual = 2.43615e-09, No Iterations 2
DILUPBiCGStab:  Solving for k, Initial residual = 0.00242155, Final residual = 1.38787e-05, No Iterations 3
bounding k, min: 0 max: 0.0652547 average: 0.0145106
ExecutionTime = 0.28 s  ClockTime = 6 s

Time = 22

DILUPBiCGStab:  Solving for Ux, Initial residual = 0.00641197, Final residual = 4.38926e-05, No Iterations 3
DILUPBiCGStab:  Solving for Uy, Initial residual = 0.166189, Final residual = 0.000923066, No Iterations 4
DILUPBiCGStab:  Solving for Uz, Initial residual = 0.147395, Final residual = 0.00078808, No Iterations 4
Pressure gradient source: uncorrected Ubar = 37.492, pressure gradient = 4579.3
GAMG:  Solving for p, Initial residual = 0.164107, Final residual = 0.01595, No Iterations 4
time step continuity errors : sum local = 3.05445e-13, global = -1.83346e-13, cumulative = -4.675e-13
Pressure gradient source: uncorrected Ubar = 37.5003, pressure gradient = 3631.68
DILUPBiCGStab:  Solving for omega, Initial residual = 2.78867e-07, Final residual = 2.45166e-09, No Iterations 2
DILUPBiCGStab:  Solving for k, Initial residual = 0.00248569, Final residual = 1.37952e-05, No Iterations 3
bounding k, min: 0 max: 0.0712421 average: 0.015379
ExecutionTime = 0.3 s  ClockTime = 6 s

Time = 23

DILUPBiCGStab:  Solving for Ux, Initial residual = 0.00613672, Final residual = 4.44692e-05, No Iterations 3
DILUPBiCGStab:  Solving for Uy, Initial residual = 0.15775, Final residual = 0.000771031, No Iterations 4
DILUPBiCGStab:  Solving for Uz, Initial residual = 0.168901, Final residual = 0.00115267, No Iterations 4
Pressure gradient source: uncorrected Ubar = 37.4856, pressure gradient = 5265.82
GAMG:  Solving for p, Initial residual = 0.134976, Final residual = 0.0125762, No Iterations 4
time step continuity errors : sum local = 9.79723e-14, global = -1.73855e-15, cumulative = -4.69239e-13
Pressure gradient source: uncorrected Ubar = 37.4996, pressure gradient = 3680.58
DILUPBiCGStab:  Solving for omega, Initial residual = 2.57416e-07, Final residual = 2.46612e-09, No Iterations 2
DILUPBiCGStab:  Solving for k, Initial residual = 0.00255868, Final residual = 1.38758e-05, No Iterations 3
bounding k, min: 0 max: 0.0776277 average: 0.0163173
ExecutionTime = 0.31 s  ClockTime = 6 s

Time = 24

DILUPBiCGStab:  Solving for Ux, Initial residual = 0.00587604, Final residual = 4.27751e-05, No Iterations 3
DILUPBiCGStab:  Solving for Uy, Initial residual = 0.170151, Final residual = 0.00151723, No Iterations 4
DILUPBiCGStab:  Solving for Uz, Initial residual = 0.197273, Final residual = 0.00143768, No Iterations 4
Pressure gradient source: uncorrected Ubar = 37.4818, pressure gradient = 5772.09
GAMG:  Solving for p, Initial residual = 0.168686, Final residual = 0.0100998, No Iterations 4
time step continuity errors : sum local = 3.91903e-13, global = -2.10482e-13, cumulative = -6.7972e-13
Pressure gradient source: uncorrected Ubar = 37.499, pressure gradient = 3793.13
DILUPBiCGStab:  Solving for omega, Initial residual = 2.38942e-07, Final residual = 9.16821e-10, No Iterations 2
DILUPBiCGStab:  Solving for k, Initial residual = 0.00262688, Final residual = 1.35995e-05, No Iterations 3
bounding k, min: 0 max: 0.0845195 average: 0.0173265
ExecutionTime = 0.31 s  ClockTime = 6 s

Time = 25

DILUPBiCGStab:  Solving for Ux, Initial residual = 0.00564185, Final residual = 4.36713e-05, No Iterations 3
DILUPBiCGStab:  Solving for Uy, Initial residual = 0.238005, Final residual = 0.00183975, No Iterations 4
DILUPBiCGStab:  Solving for Uz, Initial residual = 0.132364, Final residual = 0.000645915, No Iterations 4
Pressure gradient source: uncorrected Ubar = 37.4872, pressure gradient = 5272.21
GAMG:  Solving for p, Initial residual = 0.169248, Final residual = 0.0120258, No Iterations 4
time step continuity errors : sum local = 1.97353e-13, global = -1.1776e-13, cumulative = -7.97481e-13
Pressure gradient source: uncorrected Ubar = 37.4996, pressure gradient = 3835.63
DILUPBiCGStab:  Solving for omega, Initial residual = 2.21642e-07, Final residual = 8.72633e-10, No Iterations 2
DILUPBiCGStab:  Solving for k, Initial residual = 0.00271203, Final residual = 1.34721e-05, No Iterations 3
bounding k, min: 0 max: 0.0922097 average: 0.0184187
ExecutionTime = 0.33 s  ClockTime = 6 s

Time = 26

DILUPBiCGStab:  Solving for Ux, Initial residual = 0.00541604, Final residual = 4.28645e-05, No Iterations 3
DILUPBiCGStab:  Solving for Uy, Initial residual = 0.182573, Final residual = 0.00129652, No Iterations 4
DILUPBiCGStab:  Solving for Uz, Initial residual = 0.154408, Final residual = 0.00117563, No Iterations 4
Pressure gradient source: uncorrected Ubar = 37.485, pressure gradient = 5570.37
GAMG:  Solving for p, Initial residual = 0.132805, Final residual = 0.0105858, No Iterations 4
time step continuity errors : sum local = 1.64976e-13, global = -5.52198e-14, cumulative = -8.52701e-13
Pressure gradient source: uncorrected Ubar = 37.4993, pressure gradient = 3913.11
DILUPBiCGStab:  Solving for omega, Initial residual = 2.06062e-07, Final residual = 8.30694e-10, No Iterations 2
DILUPBiCGStab:  Solving for k, Initial residual = 0.00284361, Final residual = 1.35716e-05, No Iterations 3
bounding k, min: 0 max: 0.101205 average: 0.0196196
ExecutionTime = 0.34 s  ClockTime = 6 s

Time = 27

DILUPBiCGStab:  Solving for Ux, Initial residual = 0.0052083, Final residual = 4.35605e-05, No Iterations 3
DILUPBiCGStab:  Solving for Uy, Initial residual = 0.186689, Final residual = 0.00150498, No Iterations 4
DILUPBiCGStab:  Solving for Uz, Initial residual = 0.154299, Final residual = 0.000912317, No Iterations 4
Pressure gradient source: uncorrected Ubar = 37.4881, pressure gradient = 5287.03
GAMG:  Solving for p, Initial residual = 0.144105, Final residual = 0.0107298, No Iterations 4
time step continuity errors : sum local = 1.79961e-13, global = 1.09524e-13, cumulative = -7.43177e-13
Pressure gradient source: uncorrected Ubar = 37.4997, pressure gradient = 3951.04
DILUPBiCGStab:  Solving for omega, Initial residual = 1.92162e-07, Final residual = 7.91559e-10, No Iterations 2
DILUPBiCGStab:  Solving for k, Initial residual = 0.00304517, Final residual = 1.42804e-05, No Iterations 3
bounding k, min: 0 max: 0.112276 average: 0.0209722
ExecutionTime = 0.35 s  ClockTime = 6 s

Time = 28

DILUPBiCGStab:  Solving for Ux, Initial residual = 0.00501065, Final residual = 4.3988e-05, No Iterations 3
DILUPBiCGStab:  Solving for Uy, Initial residual = 0.15105, Final residual = 0.00115952, No Iterations 4
DILUPBiCGStab:  Solving for Uz, Initial residual = 0.120001, Final residual = 0.000972192, No Iterations 4
Pressure gradient source: uncorrected Ubar = 37.4882, pressure gradient = 5314.46
GAMG:  Solving for p, Initial residual = 0.134373, Final residual = 0.00896517, No Iterations 4
time step continuity errors : sum local = 2.201e-13, global = 4.1739e-14, cumulative = -7.01438e-13
Pressure gradient source: uncorrected Ubar = 37.4997, pressure gradient = 3989.51
DILUPBiCGStab:  Solving for omega, Initial residual = 1.79236e-07, Final residual = 7.61027e-10, No Iterations 2
DILUPBiCGStab:  Solving for k, Initial residual = 0.00334784, Final residual = 1.54388e-05, No Iterations 3
bounding k, min: 0 max: 0.12661 average: 0.0225435
ExecutionTime = 0.36 s  ClockTime = 6 s

Time = 29

DILUPBiCGStab:  Solving for Ux, Initial residual = 0.00482217, Final residual = 4.41748e-05, No Iterations 3
DILUPBiCGStab:  Solving for Uy, Initial residual = 0.122824, Final residual = 0.000716362, No Iterations 4
DILUPBiCGStab:  Solving for Uz, Initial residual = 0.135623, Final residual = 0.00110784, No Iterations 4
Pressure gradient source: uncorrected Ubar = 37.4882, pressure gradient = 5358.33
GAMG:  Solving for p, Initial residual = 0.151889, Final residual = 0.0110974, No Iterations 4
time step continuity errors : sum local = 2.67138e-13, global = 1.38005e-13, cumulative = -5.63433e-13
Pressure gradient source: uncorrected Ubar = 37.4996, pressure gradient = 4030.79
DILUPBiCGStab:  Solving for omega, Initial residual = 1.6741e-07, Final residual = 7.35152e-10, No Iterations 2
DILUPBiCGStab:  Solving for k, Initial residual = 0.00377812, Final residual = 1.67157e-05, No Iterations 3
bounding k, min: 0 max: 0.14569 average: 0.0244305
ExecutionTime = 0.37 s  ClockTime = 6 s

Time = 30

DILUPBiCGStab:  Solving for Ux, Initial residual = 0.00464194, Final residual = 4.40934e-05, No Iterations 3
DILUPBiCGStab:  Solving for Uy, Initial residual = 0.180193, Final residual = 0.000972528, No Iterations 4
DILUPBiCGStab:  Solving for Uz, Initial residual = 0.14067, Final residual = 0.00101495, No Iterations 4
Pressure gradient source: uncorrected Ubar = 37.4882, pressure gradient = 5402.37
GAMG:  Solving for p, Initial residual = 0.143082, Final residual = 0.0126813, No Iterations 3
time step continuity errors : sum local = 2.46905e-13, global = 6.3252e-14, cumulative = -5.00181e-13
Pressure gradient source: uncorrected Ubar = 37.4996, pressure gradient = 4075.11
DILUPBiCGStab:  Solving for omega, Initial residual = 1.56502e-07, Final residual = 7.12628e-10, No Iterations 2
DILUPBiCGStab:  Solving for k, Initial residual = 0.00434285, Final residual = 1.79902e-05, No Iterations 3
bounding k, min: 0 max: 0.170639 average: 0.0267601
ExecutionTime = 0.38 s  ClockTime = 6 s

Time = 31

DILUPBiCGStab:  Solving for Ux, Initial residual = 0.0044697, Final residual = 4.38436e-05, No Iterations 3
DILUPBiCGStab:  Solving for Uy, Initial residual = 0.157078, Final residual = 0.00102973, No Iterations 4
DILUPBiCGStab:  Solving for Uz, Initial residual = 0.115697, Final residual = 0.00109866, No Iterations 4
Pressure gradient source: uncorrected Ubar = 37.4884, pressure gradient = 5433.89
GAMG:  Solving for p, Initial residual = 0.139245, Final residual = 0.0127324, No Iterations 3
time step continuity errors : sum local = 2.31176e-13, global = 1.3917e-13, cumulative = -3.61011e-13
Pressure gradient source: uncorrected Ubar = 37.4996, pressure gradient = 4121.01
DILUPBiCGStab:  Solving for omega, Initial residual = 1.46422e-07, Final residual = 6.92429e-10, No Iterations 2
DILUPBiCGStab:  Solving for k, Initial residual = 0.00492532, Final residual = 1.91656e-05, No Iterations 3
bounding k, min: 0 max: 0.201105 average: 0.0296322
ExecutionTime = 0.39 s  ClockTime = 6 s

Time = 32

DILUPBiCGStab:  Solving for Ux, Initial residual = 0.00430417, Final residual = 1.93921e-05, No Iterations 4
DILUPBiCGStab:  Solving for Uy, Initial residual = 0.143318, Final residual = 0.00115297, No Iterations 4
DILUPBiCGStab:  Solving for Uz, Initial residual = 0.128864, Final residual = 0.00110896, No Iterations 4
Pressure gradient source: uncorrected Ubar = 37.4943, pressure gradient = 4786.23
GAMG:  Solving for p, Initial residual = 0.112626, Final residual = 0.00551807, No Iterations 4
time step continuity errors : sum local = 1.06478e-13, global = 3.41104e-14, cumulative = -3.26901e-13
Pressure gradient source: uncorrected Ubar = 37.4996, pressure gradient = 4165.07
DILUPBiCGStab:  Solving for omega, Initial residual = 1.37132e-07, Final residual = 6.74716e-10, No Iterations 2
DILUPBiCGStab:  Solving for k, Initial residual = 0.00548689, Final residual = 2.02441e-05, No Iterations 3
bounding k, min: 0 max: 0.238539 average: 0.0331397
ExecutionTime = 0.4 s  ClockTime = 6 s

Time = 33

DILUPBiCGStab:  Solving for Ux, Initial residual = 0.00414237, Final residual = 1.93827e-05, No Iterations 4
DILUPBiCGStab:  Solving for Uy, Initial residual = 0.149583, Final residual = 0.00118398, No Iterations 4
DILUPBiCGStab:  Solving for Uz, Initial residual = 0.128648, Final residual = 0.00108524, No Iterations 4
Pressure gradient source: uncorrected Ubar = 37.494, pressure gradient = 4870.9
GAMG:  Solving for p, Initial residual = 0.135676, Final residual = 0.0089247, No Iterations 4
time step continuity errors : sum local = 2.3597e-13, global = -9.99998e-14, cumulative = -4.26901e-13
Pressure gradient source: uncorrected Ubar = 37.4996, pressure gradient = 4214.17
DILUPBiCGStab:  Solving for omega, Initial residual = 1.28695e-07, Final residual = 6.52554e-10, No Iterations 2
DILUPBiCGStab:  Solving for k, Initial residual = 0.0060659, Final residual = 5.73182e-05, No Iterations 2
bounding k, min: 0 max: 0.284781 average: 0.0374004
ExecutionTime = 0.41 s  ClockTime = 6 s

Time = 34

DILUPBiCGStab:  Solving for Ux, Initial residual = 0.00398568, Final residual = 1.92541e-05, No Iterations 4
DILUPBiCGStab:  Solving for Uy, Initial residual = 0.232638, Final residual = 0.00195302, No Iterations 4
DILUPBiCGStab:  Solving for Uz, Initial residual = 0.239819, Final residual = 0.00218767, No Iterations 4
Pressure gradient source: uncorrected Ubar = 37.494, pressure gradient = 4929.93
GAMG:  Solving for p, Initial residual = 0.155882, Final residual = 0.0119664, No Iterations 4
time step continuity errors : sum local = 1.95697e-13, global = -5.56066e-14, cumulative = -4.82507e-13
Pressure gradient source: uncorrected Ubar = 37.4996, pressure gradient = 4265.09
DILUPBiCGStab:  Solving for omega, Initial residual = 1.21077e-07, Final residual = 6.30096e-10, No Iterations 2
DILUPBiCGStab:  Solving for k, Initial residual = 0.00664536, Final residual = 5.95068e-05, No Iterations 2
bounding k, min: 0 max: 0.341842 average: 0.042603
ExecutionTime = 0.43 s  ClockTime = 6 s

Time = 35

DILUPBiCGStab:  Solving for Ux, Initial residual = 0.00383285, Final residual = 1.90015e-05, No Iterations 4
DILUPBiCGStab:  Solving for Uy, Initial residual = 0.129472, Final residual = 0.0010731, No Iterations 4
DILUPBiCGStab:  Solving for Uz, Initial residual = 0.10005, Final residual = 0.000992733, No Iterations 4
Pressure gradient source: uncorrected Ubar = 37.4939, pressure gradient = 5000.47
GAMG:  Solving for p, Initial residual = 0.100433, Final residual = 0.00781432, No Iterations 3
time step continuity errors : sum local = 2.3786e-13, global = -2.13297e-13, cumulative = -6.95804e-13
Pressure gradient source: uncorrected Ubar = 37.4995, pressure gradient = 4319.17
DILUPBiCGStab:  Solving for omega, Initial residual = 1.14077e-07, Final residual = 6.07254e-10, No Iterations 2
DILUPBiCGStab:  Solving for k, Initial residual = 0.00721864, Final residual = 6.19149e-05, No Iterations 2
bounding k, min: 0 max: 0.412171 average: 0.0489549
ExecutionTime = 0.44 s  ClockTime = 6 s

Time = 36

DILUPBiCGStab:  Solving for Ux, Initial residual = 0.00368274, Final residual = 1.86332e-05, No Iterations 4
DILUPBiCGStab:  Solving for Uy, Initial residual = 0.105379, Final residual = 0.000766752, No Iterations 4
DILUPBiCGStab:  Solving for Uz, Initial residual = 0.0941096, Final residual = 0.000900758, No Iterations 4
Pressure gradient source: uncorrected Ubar = 37.4937, pressure gradient = 5076.72
GAMG:  Solving for p, Initial residual = 0.113789, Final residual = 0.00663177, No Iterations 4
time step continuity errors : sum local = 1.23349e-13, global = -8.27217e-14, cumulative = -7.78526e-13
Pressure gradient source: uncorrected Ubar = 37.4995, pressure gradient = 4376.89
DILUPBiCGStab:  Solving for omega, Initial residual = 1.07623e-07, Final residual = 5.85645e-10, No Iterations 2
DILUPBiCGStab:  Solving for k, Initial residual = 0.00776964, Final residual = 6.45471e-05, No Iterations 2
bounding k, min: 0 max: 0.498545 average: 0.0566994
ExecutionTime = 0.45 s  ClockTime = 6 s

Time = 37

DILUPBiCGStab:  Solving for Ux, Initial residual = 0.00353405, Final residual = 1.81557e-05, No Iterations 4
DILUPBiCGStab:  Solving for Uy, Initial residual = 0.170722, Final residual = 0.00139919, No Iterations 4
DILUPBiCGStab:  Solving for Uz, Initial residual = 0.150427, Final residual = 0.00106134, No Iterations 4
Pressure gradient source: uncorrected Ubar = 37.4936, pressure gradient = 5159.64
GAMG:  Solving for p, Initial residual = 0.118448, Final residual = 0.00770519, No Iterations 4
time step continuity errors : sum local = 2.82791e-13, global = 2.01524e-13, cumulative = -5.77002e-13
Pressure gradient source: uncorrected Ubar = 37.4995, pressure gradient = 4438.79
DILUPBiCGStab:  Solving for omega, Initial residual = 1.01616e-07, Final residual = 5.65574e-10, No Iterations 2
DILUPBiCGStab:  Solving for k, Initial residual = 0.00827788, Final residual = 6.70237e-05, No Iterations 2
bounding k, min: 0 max: 0.604012 average: 0.0661144
ExecutionTime = 0.46 s  ClockTime = 6 s

Time = 38

DILUPBiCGStab:  Solving for Ux, Initial residual = 0.00338597, Final residual = 1.75971e-05, No Iterations 4
DILUPBiCGStab:  Solving for Uy, Initial residual = 0.10129, Final residual = 0.000966257, No Iterations 4
DILUPBiCGStab:  Solving for Uz, Initial residual = 0.13071, Final residual = 0.00106624, No Iterations 4
Pressure gradient source: uncorrected Ubar = 37.4934, pressure gradient = 5255.55
GAMG:  Solving for p, Initial residual = 0.128178, Final residual = 0.0117294, No Iterations 4
time step continuity errors : sum local = 1.33844e-13, global = 1.15443e-14, cumulative = -5.65457e-13
Pressure gradient source: uncorrected Ubar = 37.4995, pressure gradient = 4506.01
DILUPBiCGStab:  Solving for omega, Initial residual = 9.59883e-08, Final residual = 5.4801e-10, No Iterations 2
DILUPBiCGStab:  Solving for k, Initial residual = 0.00873578, Final residual = 6.89289e-05, No Iterations 2
bounding k, min: 0 max: 0.731797 average: 0.0775215
ExecutionTime = 0.48 s  ClockTime = 6 s

Time = 39

DILUPBiCGStab:  Solving for Ux, Initial residual = 0.00323728, Final residual = 1.6968e-05, No Iterations 4
DILUPBiCGStab:  Solving for Uy, Initial residual = 0.19579, Final residual = 0.00187253, No Iterations 4
DILUPBiCGStab:  Solving for Uz, Initial residual = 0.139903, Final residual = 0.00136068, No Iterations 4
Pressure gradient source: uncorrected Ubar = 37.4932, pressure gradient = 5363.14
GAMG:  Solving for p, Initial residual = 0.13532, Final residual = 0.0110602, No Iterations 4
time step continuity errors : sum local = 2.73694e-13, global = 2.36856e-13, cumulative = -3.28601e-13
Pressure gradient source: uncorrected Ubar = 37.4994, pressure gradient = 4579.4
DILUPBiCGStab:  Solving for omega, Initial residual = 9.0658e-08, Final residual = 5.34248e-10, No Iterations 2
DILUPBiCGStab:  Solving for k, Initial residual = 0.00913607, Final residual = 7.03355e-05, No Iterations 2
bounding k, min: 0 max: 0.885153 average: 0.0912844
ExecutionTime = 0.49 s  ClockTime = 6 s

Time = 40

DILUPBiCGStab:  Solving for Ux, Initial residual = 0.00308716, Final residual = 1.629e-05, No Iterations 4
DILUPBiCGStab:  Solving for Uy, Initial residual = 0.22144, Final residual = 0.00186589, No Iterations 4
DILUPBiCGStab:  Solving for Uz, Initial residual = 0.149302, Final residual = 0.00126251, No Iterations 4
Pressure gradient source: uncorrected Ubar = 37.4929, pressure gradient = 5486.73
GAMG:  Solving for p, Initial residual = 0.11923, Final residual = 0.00847676, No Iterations 4
time step continuity errors : sum local = 1.49665e-13, global = -5.51998e-14, cumulative = -3.83801e-13
Pressure gradient source: uncorrected Ubar = 37.4994, pressure gradient = 4660.18
DILUPBiCGStab:  Solving for omega, Initial residual = 8.56291e-08, Final residual = 5.21054e-10, No Iterations 2
DILUPBiCGStab:  Solving for k, Initial residual = 0.00947986, Final residual = 7.1315e-05, No Iterations 2
bounding k, min: 0 max: 1.06721 average: 0.107816
ExecutionTime = 0.5 s  ClockTime = 6 s

Time = 41

DILUPBiCGStab:  Solving for Ux, Initial residual = 0.00293486, Final residual = 1.55629e-05, No Iterations 4
DILUPBiCGStab:  Solving for Uy, Initial residual = 0.141826, Final residual = 0.00138681, No Iterations 4
DILUPBiCGStab:  Solving for Uz, Initial residual = 0.150172, Final residual = 0.00144423, No Iterations 4
Pressure gradient source: uncorrected Ubar = 37.4926, pressure gradient = 5629.87
GAMG:  Solving for p, Initial residual = 0.119036, Final residual = 0.00792601, No Iterations 4
time step continuity errors : sum local = 1.67168e-13, global = -1.0625e-13, cumulative = -4.90051e-13
Pressure gradient source: uncorrected Ubar = 37.4993, pressure gradient = 4749.83
DILUPBiCGStab:  Solving for omega, Initial residual = 8.08723e-08, Final residual = 5.07758e-10, No Iterations 2
DILUPBiCGStab:  Solving for k, Initial residual = 0.00976288, Final residual = 7.18623e-05, No Iterations 2
bounding k, min: 0 max: 1.28071 average: 0.127562
ExecutionTime = 0.51 s  ClockTime = 6 s

Time = 42

DILUPBiCGStab:  Solving for Ux, Initial residual = 0.00278011, Final residual = 1.47943e-05, No Iterations 4
DILUPBiCGStab:  Solving for Uy, Initial residual = 0.132013, Final residual = 0.000846483, No Iterations 4
DILUPBiCGStab:  Solving for Uz, Initial residual = 0.110749, Final residual = 0.000938773, No Iterations 4
Pressure gradient source: uncorrected Ubar = 37.4922, pressure gradient = 5790.2
GAMG:  Solving for p, Initial residual = 0.105011, Final residual = 0.00695614, No Iterations 4
time step continuity errors : sum local = 2.08805e-13, global = -1.50751e-13, cumulative = -6.40801e-13
Pressure gradient source: uncorrected Ubar = 37.4993, pressure gradient = 4849.39
DILUPBiCGStab:  Solving for omega, Initial residual = 7.63473e-08, Final residual = 4.94823e-10, No Iterations 2
DILUPBiCGStab:  Solving for k, Initial residual = 0.00997775, Final residual = 7.18795e-05, No Iterations 2
bounding k, min: 0 max: 1.52763 average: 0.150988
ExecutionTime = 0.52 s  ClockTime = 6 s

Time = 43

DILUPBiCGStab:  Solving for Ux, Initial residual = 0.0026243, Final residual = 1.39575e-05, No Iterations 4
DILUPBiCGStab:  Solving for Uy, Initial residual = 0.133822, Final residual = 0.00131942, No Iterations 3
DILUPBiCGStab:  Solving for Uz, Initial residual = 0.13085, Final residual = 0.000989262, No Iterations 4
Pressure gradient source: uncorrected Ubar = 37.4918, pressure gradient = 5969.17
GAMG:  Solving for p, Initial residual = 0.0946641, Final residual = 0.00869916, No Iterations 3
time step continuity errors : sum local = 1.49987e-13, global = -1.01368e-13, cumulative = -7.4217e-13
Pressure gradient source: uncorrected Ubar = 37.4992, pressure gradient = 4959.9
DILUPBiCGStab:  Solving for omega, Initial residual = 7.20895e-08, Final residual = 4.8165e-10, No Iterations 2
DILUPBiCGStab:  Solving for k, Initial residual = 0.0101212, Final residual = 7.13546e-05, No Iterations 2
bounding k, min: 0 max: 1.80898 average: 0.178554
ExecutionTime = 0.53 s  ClockTime = 6 s

Time = 44

DILUPBiCGStab:  Solving for Ux, Initial residual = 0.00247121, Final residual = 1.30219e-05, No Iterations 4
DILUPBiCGStab:  Solving for Uy, Initial residual = 0.136514, Final residual = 0.000789479, No Iterations 4
DILUPBiCGStab:  Solving for Uz, Initial residual = 0.0953002, Final residual = 0.000830234, No Iterations 4
Pressure gradient source: uncorrected Ubar = 37.4914, pressure gradient = 6170.29
GAMG:  Solving for p, Initial residual = 0.108059, Final residual = 0.00661343, No Iterations 5
time step continuity errors : sum local = 2.77266e-13, global = 2.33461e-13, cumulative = -5.08708e-13
Pressure gradient source: uncorrected Ubar = 37.4991, pressure gradient = 5082.76
DILUPBiCGStab:  Solving for omega, Initial residual = 6.80045e-08, Final residual = 4.69368e-10, No Iterations 2
DILUPBiCGStab:  Solving for k, Initial residual = 0.0101956, Final residual = 7.04506e-05, No Iterations 2
bounding k, min: 0 max: 2.12455 average: 0.210705
ExecutionTime = 0.54 s  ClockTime = 6 s

Time = 45

DILUPBiCGStab:  Solving for Ux, Initial residual = 0.0023244, Final residual = 1.19508e-05, No Iterations 4
DILUPBiCGStab:  Solving for Uy, Initial residual = 0.183638, Final residual = 0.00109746, No Iterations 4
DILUPBiCGStab:  Solving for Uz, Initial residual = 0.273332, Final residual = 0.00241112, No Iterations 4
Pressure gradient source: uncorrected Ubar = 37.4911, pressure gradient = 6368.09
GAMG:  Solving for p, Initial residual = 0.150713, Final residual = 0.0096612, No Iterations 5
time step continuity errors : sum local = 3.06575e-13, global = -2.28132e-13, cumulative = -7.36841e-13
Pressure gradient source: uncorrected Ubar = 37.4991, pressure gradient = 5216.18
DILUPBiCGStab:  Solving for omega, Initial residual = 6.4156e-08, Final residual = 4.57927e-10, No Iterations 2
DILUPBiCGStab:  Solving for k, Initial residual = 0.0101974, Final residual = 6.91361e-05, No Iterations 2
bounding k, min: 0 max: 2.47297 average: 0.247827
ExecutionTime = 0.56 s  ClockTime = 6 s

Time = 46

DILUPBiCGStab:  Solving for Ux, Initial residual = 0.00218554, Final residual = 2.155e-05, No Iterations 3
DILUPBiCGStab:  Solving for Uy, Initial residual = 0.317795, Final residual = 0.00159328, No Iterations 4
DILUPBiCGStab:  Solving for Uz, Initial residual = 0.296488, Final residual = 0.0023467, No Iterations 4
Pressure gradient source: uncorrected Ubar = 37.4891, pressure gradient = 6843.08
GAMG:  Solving for p, Initial residual = 0.132553, Final residual = 0.00842918, No Iterations 5
time step continuity errors : sum local = 6.33452e-14, global = 4.95004e-14, cumulative = -6.8734e-13
Pressure gradient source: uncorrected Ubar = 37.499, pressure gradient = 5365.14
DILUPBiCGStab:  Solving for omega, Initial residual = 6.10375e-08, Final residual = 4.48221e-10, No Iterations 2
DILUPBiCGStab:  Solving for k, Initial residual = 0.0101326, Final residual = 6.74023e-05, No Iterations 2
bounding k, min: 0 max: 2.85179 average: 0.29024
ExecutionTime = 0.57 s  ClockTime = 6 s

Time = 47

DILUPBiCGStab:  Solving for Ux, Initial residual = 0.0020559, Final residual = 1.88006e-05, No Iterations 3
DILUPBiCGStab:  Solving for Uy, Initial residual = 0.213423, Final residual = 0.00212858, No Iterations 3
DILUPBiCGStab:  Solving for Uz, Initial residual = 0.13833, Final residual = 0.00106693, No Iterations 4
Pressure gradient source: uncorrected Ubar = 37.4893, pressure gradient = 7022.18
GAMG:  Solving for p, Initial residual = 0.0925937, Final residual = 0.0085398, No Iterations 3
time step continuity errors : sum local = 2.86245e-13, global = -1.8032e-13, cumulative = -8.6766e-13
Pressure gradient source: uncorrected Ubar = 37.499, pressure gradient = 5522.37
DILUPBiCGStab:  Solving for omega, Initial residual = 5.82857e-08, Final residual = 4.37163e-10, No Iterations 2
DILUPBiCGStab:  Solving for k, Initial residual = 0.0100083, Final residual = 6.53199e-05, No Iterations 2
bounding k, min: 0 max: 3.25871 average: 0.338174
ExecutionTime = 0.58 s  ClockTime = 6 s

Time = 48

DILUPBiCGStab:  Solving for Ux, Initial residual = 0.00193309, Final residual = 1.57464e-05, No Iterations 3
DILUPBiCGStab:  Solving for Uy, Initial residual = 0.14779, Final residual = 0.000819401, No Iterations 4
DILUPBiCGStab:  Solving for Uz, Initial residual = 0.137673, Final residual = 0.00129554, No Iterations 4
Pressure gradient source: uncorrected Ubar = 37.4894, pressure gradient = 7224.12
GAMG:  Solving for p, Initial residual = 0.108904, Final residual = 0.00994714, No Iterations 4
time step continuity errors : sum local = 3.06403e-13, global = -2.29997e-13, cumulative = -1.09766e-12
Pressure gradient source: uncorrected Ubar = 37.499, pressure gradient = 5689.78
DILUPBiCGStab:  Solving for omega, Initial residual = 5.58567e-08, Final residual = 4.20178e-10, No Iterations 2
DILUPBiCGStab:  Solving for k, Initial residual = 0.00983386, Final residual = 6.31487e-05, No Iterations 2
bounding k, min: 0 max: 3.70929 average: 0.391768
ExecutionTime = 0.59 s  ClockTime = 6 s

Time = 49

DILUPBiCGStab:  Solving for Ux, Initial residual = 0.00181899, Final residual = 1.28725e-05, No Iterations 3
DILUPBiCGStab:  Solving for Uy, Initial residual = 0.228453, Final residual = 0.0021657, No Iterations 3
DILUPBiCGStab:  Solving for Uz, Initial residual = 0.24793, Final residual = 0.00199437, No Iterations 4
Pressure gradient source: uncorrected Ubar = 37.4896, pressure gradient = 7410.27
GAMG:  Solving for p, Initial residual = 0.107782, Final residual = 0.00912331, No Iterations 4
time step continuity errors : sum local = 1.34193e-13, global = -7.90559e-15, cumulative = -1.10556e-12
Pressure gradient source: uncorrected Ubar = 37.4989, pressure gradient = 5864.79
DILUPBiCGStab:  Solving for omega, Initial residual = 5.37206e-08, Final residual = 3.97505e-10, No Iterations 2
DILUPBiCGStab:  Solving for k, Initial residual = 0.009574, Final residual = 6.07976e-05, No Iterations 2
bounding k, min: 0 max: 4.18321 average: 0.45088
ExecutionTime = 0.6 s  ClockTime = 6 s

Time = 50

DILUPBiCGStab:  Solving for Ux, Initial residual = 0.001718, Final residual = 1.05462e-05, No Iterations 3
DILUPBiCGStab:  Solving for Uy, Initial residual = 0.131926, Final residual = 0.00106266, No Iterations 3
DILUPBiCGStab:  Solving for Uz, Initial residual = 0.186492, Final residual = 0.00104842, No Iterations 4
Pressure gradient source: uncorrected Ubar = 37.4904, pressure gradient = 7504.42
GAMG:  Solving for p, Initial residual = 0.0886943, Final residual = 0.00543674, No Iterations 4
time step continuity errors : sum local = 7.76771e-14, global = -5.38602e-14, cumulative = -1.15942e-12
Pressure gradient source: uncorrected Ubar = 37.499, pressure gradient = 6035.62
DILUPBiCGStab:  Solving for omega, Initial residual = 5.20323e-08, Final residual = 3.74797e-10, No Iterations 2
DILUPBiCGStab:  Solving for k, Initial residual = 0.0090991, Final residual = 5.77196e-05, No Iterations 2
bounding k, min: 0 max: 4.65156 average: 0.514522
ExecutionTime = 0.61 s  ClockTime = 7 s

Time = 51

DILUPBiCGStab:  Solving for Ux, Initial residual = 0.00161723, Final residual = 8.91722e-06, No Iterations 3
DILUPBiCGStab:  Solving for Uy, Initial residual = 0.152963, Final residual = 0.00068113, No Iterations 4
DILUPBiCGStab:  Solving for Uz, Initial residual = 0.146788, Final residual = 0.000854649, No Iterations 4
Pressure gradient source: uncorrected Ubar = 37.4912, pressure gradient = 7602.15
GAMG:  Solving for p, Initial residual = 0.128121, Final residual = 0.00974665, No Iterations 4
time step continuity errors : sum local = 3.92532e-13, global = -1.97152e-13, cumulative = -1.35657e-12
Pressure gradient source: uncorrected Ubar = 37.4991, pressure gradient = 6202.84
DILUPBiCGStab:  Solving for omega, Initial residual = 5.05025e-08, Final residual = 3.51035e-10, No Iterations 2
DILUPBiCGStab:  Solving for k, Initial residual = 0.00853884, Final residual = 5.45542e-05, No Iterations 2
bounding k, min: 0 max: 5.1035 average: 0.581822
ExecutionTime = 0.63 s  ClockTime = 7 s

Time = 52

DILUPBiCGStab:  Solving for Ux, Initial residual = 0.00151312, Final residual = 7.77979e-06, No Iterations 3
DILUPBiCGStab:  Solving for Uy, Initial residual = 0.234075, Final residual = 0.00215734, No Iterations 3
DILUPBiCGStab:  Solving for Uz, Initial residual = 0.308451, Final residual = 0.00155553, No Iterations 4
Pressure gradient source: uncorrected Ubar = 37.4918, pressure gradient = 7708.2
GAMG:  Solving for p, Initial residual = 0.113788, Final residual = 0.00742708, No Iterations 4
time step continuity errors : sum local = 1.97429e-13, global = -1.35898e-13, cumulative = -1.49247e-12
Pressure gradient source: uncorrected Ubar = 37.4991, pressure gradient = 6367.46
DILUPBiCGStab:  Solving for omega, Initial residual = 4.91533e-08, Final residual = 3.26382e-10, No Iterations 2
DILUPBiCGStab:  Solving for k, Initial residual = 0.00797632, Final residual = 5.13539e-05, No Iterations 2
bounding k, min: 0 max: 5.54318 average: 0.652111
ExecutionTime = 0.64 s  ClockTime = 7 s

Time = 53

DILUPBiCGStab:  Solving for Ux, Initial residual = 0.00140745, Final residual = 1.23226e-05, No Iterations 3
DILUPBiCGStab:  Solving for Uy, Initial residual = 0.12601, Final residual = 0.000613028, No Iterations 4
DILUPBiCGStab:  Solving for Uz, Initial residual = 0.099037, Final residual = 0.000666089, No Iterations 3
Pressure gradient source: uncorrected Ubar = 37.4921, pressure gradient = 7863.61
GAMG:  Solving for p, Initial residual = 0.109464, Final residual = 0.00726388, No Iterations 4
time step continuity errors : sum local = 9.24531e-14, global = -3.97712e-14, cumulative = -1.53224e-12
Pressure gradient source: uncorrected Ubar = 37.4991, pressure gradient = 6530.2
DILUPBiCGStab:  Solving for omega, Initial residual = 4.76165e-08, Final residual = 3.04424e-10, No Iterations 2
DILUPBiCGStab:  Solving for k, Initial residual = 0.0074471, Final residual = 4.85183e-05, No Iterations 2
bounding k, min: 0 max: 5.96741 average: 0.724868
ExecutionTime = 0.65 s  ClockTime = 7 s

Time = 54

DILUPBiCGStab:  Solving for Ux, Initial residual = 0.00131222, Final residual = 9.79785e-06, No Iterations 3
DILUPBiCGStab:  Solving for Uy, Initial residual = 0.175023, Final residual = 0.000624586, No Iterations 4
DILUPBiCGStab:  Solving for Uz, Initial residual = 0.161189, Final residual = 0.00138489, No Iterations 3
Pressure gradient source: uncorrected Ubar = 37.4926, pressure gradient = 7963.31
GAMG:  Solving for p, Initial residual = 0.106331, Final residual = 0.00743383, No Iterations 4
time step continuity errors : sum local = 3.25018e-13, global = 1.46041e-13, cumulative = -1.3862e-12
Pressure gradient source: uncorrected Ubar = 37.4992, pressure gradient = 6690.17
DILUPBiCGStab:  Solving for omega, Initial residual = 4.63678e-08, Final residual = 2.89917e-10, No Iterations 2
DILUPBiCGStab:  Solving for k, Initial residual = 0.00697138, Final residual = 4.60128e-05, No Iterations 2
bounding k, min: 0 max: 6.38145 average: 0.799735
ExecutionTime = 0.66 s  ClockTime = 7 s

Time = 55

DILUPBiCGStab:  Solving for Ux, Initial residual = 0.00121186, Final residual = 7.64759e-06, No Iterations 3
DILUPBiCGStab:  Solving for Uy, Initial residual = 0.155222, Final residual = 0.00114701, No Iterations 3
DILUPBiCGStab:  Solving for Uz, Initial residual = 0.254936, Final residual = 0.00117022, No Iterations 4
Pressure gradient source: uncorrected Ubar = 37.4932, pressure gradient = 8061.54
GAMG:  Solving for p, Initial residual = 0.117494, Final residual = 0.00813509, No Iterations 4
time step continuity errors : sum local = 3.72065e-13, global = 2.93334e-13, cumulative = -1.09287e-12
Pressure gradient source: uncorrected Ubar = 37.4992, pressure gradient = 6847.54
DILUPBiCGStab:  Solving for omega, Initial residual = 4.49611e-08, Final residual = 2.79106e-10, No Iterations 2
DILUPBiCGStab:  Solving for k, Initial residual = 0.00653745, Final residual = 4.32617e-05, No Iterations 2
bounding k, min: 0 max: 6.78558 average: 0.876359
ExecutionTime = 0.67 s  ClockTime = 7 s

Time = 56

DILUPBiCGStab:  Solving for Ux, Initial residual = 0.00112889, Final residual = 6.07809e-06, No Iterations 3
DILUPBiCGStab:  Solving for Uy, Initial residual = 0.150295, Final residual = 0.000984598, No Iterations 3
DILUPBiCGStab:  Solving for Uz, Initial residual = 0.129369, Final residual = 0.0010631, No Iterations 3
Pressure gradient source: uncorrected Ubar = 37.4937, pressure gradient = 8156.25
GAMG:  Solving for p, Initial residual = 0.11018, Final residual = 0.00569731, No Iterations 4
time step continuity errors : sum local = 3.15171e-13, global = 2.51712e-13, cumulative = -8.41156e-13
Pressure gradient source: uncorrected Ubar = 37.4993, pressure gradient = 7002.17
DILUPBiCGStab:  Solving for omega, Initial residual = 4.36585e-08, Final residual = 2.75406e-10, No Iterations 2
DILUPBiCGStab:  Solving for k, Initial residual = 0.00615634, Final residual = 4.08239e-05, No Iterations 2
bounding k, min: 0 max: 7.18179 average: 0.954562
ExecutionTime = 0.69 s  ClockTime = 7 s

Time = 57

DILUPBiCGStab:  Solving for Ux, Initial residual = 0.00104414, Final residual = 5.05528e-06, No Iterations 3
DILUPBiCGStab:  Solving for Uy, Initial residual = 0.204825, Final residual = 0.00111937, No Iterations 3
DILUPBiCGStab:  Solving for Uz, Initial residual = 0.192052, Final residual = 0.00148633, No Iterations 3
Pressure gradient source: uncorrected Ubar = 37.4941, pressure gradient = 8248.16
GAMG:  Solving for p, Initial residual = 0.101293, Final residual = 0.00676987, No Iterations 4
time step continuity errors : sum local = 1.43685e-13, global = 1.11939e-13, cumulative = -7.29217e-13
Pressure gradient source: uncorrected Ubar = 37.4993, pressure gradient = 7154.5
DILUPBiCGStab:  Solving for omega, Initial residual = 4.2338e-08, Final residual = 2.71248e-10, No Iterations 2
DILUPBiCGStab:  Solving for k, Initial residual = 0.00581387, Final residual = 3.85694e-05, No Iterations 2
bounding k, min: 0 max: 7.56991 average: 1.03413
ExecutionTime = 0.7 s  ClockTime = 7 s

Time = 58

DILUPBiCGStab:  Solving for Ux, Initial residual = 0.000972378, Final residual = 4.56282e-06, No Iterations 3
DILUPBiCGStab:  Solving for Uy, Initial residual = 0.15288, Final residual = 0.00082655, No Iterations 3
DILUPBiCGStab:  Solving for Uz, Initial residual = 0.211301, Final residual = 0.00209665, No Iterations 3
Pressure gradient source: uncorrected Ubar = 37.4946, pressure gradient = 8330.69
GAMG:  Solving for p, Initial residual = 0.0938713, Final residual = 0.00851525, No Iterations 4
time step continuity errors : sum local = 1.65761e-13, global = 9.53922e-14, cumulative = -6.33825e-13
Pressure gradient source: uncorrected Ubar = 37.4993, pressure gradient = 7303.83
DILUPBiCGStab:  Solving for omega, Initial residual = 4.09778e-08, Final residual = 2.64205e-10, No Iterations 2
DILUPBiCGStab:  Solving for k, Initial residual = 0.00550947, Final residual = 3.64268e-05, No Iterations 2
bounding k, min: 0 max: 7.95041 average: 1.11492
ExecutionTime = 0.71 s  ClockTime = 7 s

Time = 59

DILUPBiCGStab:  Solving for Ux, Initial residual = 0.000907854, Final residual = 4.41532e-06, No Iterations 3
DILUPBiCGStab:  Solving for Uy, Initial residual = 0.297407, Final residual = 0.00201873, No Iterations 3
DILUPBiCGStab:  Solving for Uz, Initial residual = 0.244615, Final residual = 0.00232155, No Iterations 3
Pressure gradient source: uncorrected Ubar = 37.4951, pressure gradient = 8415.7
GAMG:  Solving for p, Initial residual = 0.124407, Final residual = 0.01146, No Iterations 4
time step continuity errors : sum local = 2.1468e-13, global = 5.63399e-14, cumulative = -5.77485e-13
Pressure gradient source: uncorrected Ubar = 37.4993, pressure gradient = 7450.36
DILUPBiCGStab:  Solving for omega, Initial residual = 3.98184e-08, Final residual = 2.47424e-10, No Iterations 2
DILUPBiCGStab:  Solving for k, Initial residual = 0.00523631, Final residual = 3.43372e-05, No Iterations 2
bounding k, min: 0 max: 8.3287 average: 1.1968
ExecutionTime = 0.72 s  ClockTime = 7 s

Time = 60

DILUPBiCGStab:  Solving for Ux, Initial residual = 0.000849404, Final residual = 4.48722e-06, No Iterations 3
DILUPBiCGStab:  Solving for Uy, Initial residual = 0.305999, Final residual = 0.00247424, No Iterations 3
DILUPBiCGStab:  Solving for Uz, Initial residual = 0.225056, Final residual = 0.00184158, No Iterations 3
Pressure gradient source: uncorrected Ubar = 37.4954, pressure gradient = 8509.61
GAMG:  Solving for p, Initial residual = 0.08658, Final residual = 0.00491434, No Iterations 4
time step continuity errors : sum local = 1.94961e-13, global = 4.26572e-14, cumulative = -5.34828e-13
Pressure gradient source: uncorrected Ubar = 37.4994, pressure gradient = 7594.34
DILUPBiCGStab:  Solving for omega, Initial residual = 3.85704e-08, Final residual = 3.67138e-10, No Iterations 2
DILUPBiCGStab:  Solving for k, Initial residual = 0.00498515, Final residual = 3.23337e-05, No Iterations 2
bounding k, min: 0 max: 8.69985 average: 1.27959
ExecutionTime = 0.73 s  ClockTime = 7 s

Time = 61

DILUPBiCGStab:  Solving for Ux, Initial residual = 0.000800542, Final residual = 4.80969e-06, No Iterations 3
DILUPBiCGStab:  Solving for Uy, Initial residual = 0.152723, Final residual = 0.00148013, No Iterations 3
DILUPBiCGStab:  Solving for Uz, Initial residual = 0.216605, Final residual = 0.00190448, No Iterations 3
Pressure gradient source: uncorrected Ubar = 37.4957, pressure gradient = 8620.83
GAMG:  Solving for p, Initial residual = 0.100965, Final residual = 0.00617109, No Iterations 5
time step continuity errors : sum local = 5.34706e-13, global = 4.51164e-13, cumulative = -8.36641e-14
Pressure gradient source: uncorrected Ubar = 37.4994, pressure gradient = 7736.09
DILUPBiCGStab:  Solving for omega, Initial residual = 3.74387e-08, Final residual = 3.08048e-10, No Iterations 2
DILUPBiCGStab:  Solving for k, Initial residual = 0.00476003, Final residual = 3.04737e-05, No Iterations 2
bounding k, min: 0 max: 9.06317 average: 1.36321
ExecutionTime = 0.74 s  ClockTime = 7 s

Time = 62

DILUPBiCGStab:  Solving for Ux, Initial residual = 0.000764065, Final residual = 5.06671e-06, No Iterations 3
DILUPBiCGStab:  Solving for Uy, Initial residual = 0.427451, Final residual = 0.00371155, No Iterations 3
DILUPBiCGStab:  Solving for Uz, Initial residual = 0.263769, Final residual = 0.0020046, No Iterations 3
Pressure gradient source: uncorrected Ubar = 37.4959, pressure gradient = 8738.81
GAMG:  Solving for p, Initial residual = 0.122939, Final residual = 0.00824084, No Iterations 5
time step continuity errors : sum local = 5.26185e-14, global = -2.09651e-14, cumulative = -1.04629e-13
Pressure gradient source: uncorrected Ubar = 37.4994, pressure gradient = 7874.77
DILUPBiCGStab:  Solving for omega, Initial residual = 3.649e-08, Final residual = 2.60079e-10, No Iterations 2
DILUPBiCGStab:  Solving for k, Initial residual = 0.00455093, Final residual = 2.86483e-05, No Iterations 2
bounding k, min: 0 max: 9.4184 average: 1.44751
ExecutionTime = 0.75 s  ClockTime = 7 s

Time = 63

DILUPBiCGStab:  Solving for Ux, Initial residual = 0.000735483, Final residual = 5.17553e-06, No Iterations 3
DILUPBiCGStab:  Solving for Uy, Initial residual = 0.32764, Final residual = 0.00293838, No Iterations 3
DILUPBiCGStab:  Solving for Uz, Initial residual = 0.313931, Final residual = 0.00276461, No Iterations 3
Pressure gradient source: uncorrected Ubar = 37.4961, pressure gradient = 8859.33
GAMG:  Solving for p, Initial residual = 0.11997, Final residual = 0.0112471, No Iterations 4
time step continuity errors : sum local = 2.15981e-13, global = 1.55971e-13, cumulative = 5.13421e-14
Pressure gradient source: uncorrected Ubar = 37.4995, pressure gradient = 8010.49
DILUPBiCGStab:  Solving for omega, Initial residual = 3.54881e-08, Final residual = 2.21521e-10, No Iterations 2
DILUPBiCGStab:  Solving for k, Initial residual = 0.0043557, Final residual = 2.68023e-05, No Iterations 2
bounding k, min: 0 max: 9.76539 average: 1.53233
ExecutionTime = 0.76 s  ClockTime = 7 s

Time = 64

DILUPBiCGStab:  Solving for Ux, Initial residual = 0.000720298, Final residual = 5.26464e-06, No Iterations 3
DILUPBiCGStab:  Solving for Uy, Initial residual = 0.345486, Final residual = 0.00312107, No Iterations 3
DILUPBiCGStab:  Solving for Uz, Initial residual = 0.214339, Final residual = 0.00125187, No Iterations 3
Pressure gradient source: uncorrected Ubar = 37.4962, pressure gradient = 8982.3
GAMG:  Solving for p, Initial residual = 0.102176, Final residual = 0.00818941, No Iterations 4
time step continuity errors : sum local = 2.19898e-13, global = -9.91293e-14, cumulative = -4.77872e-14
Pressure gradient source: uncorrected Ubar = 37.4995, pressure gradient = 8144.1
DILUPBiCGStab:  Solving for omega, Initial residual = 3.46769e-08, Final residual = 1.89154e-10, No Iterations 2
DILUPBiCGStab:  Solving for k, Initial residual = 0.00417644, Final residual = 2.49999e-05, No Iterations 2
bounding k, min: 0 max: 10.1039 average: 1.6176
ExecutionTime = 0.77 s  ClockTime = 7 s

Time = 65

DILUPBiCGStab:  Solving for Ux, Initial residual = 0.000714454, Final residual = 5.29058e-06, No Iterations 3
DILUPBiCGStab:  Solving for Uy, Initial residual = 0.23234, Final residual = 0.00192918, No Iterations 3
DILUPBiCGStab:  Solving for Uz, Initial residual = 0.153385, Final residual = 0.00101896, No Iterations 3
Pressure gradient source: uncorrected Ubar = 37.4964, pressure gradient = 9101.28
GAMG:  Solving for p, Initial residual = 0.0818757, Final residual = 0.00494809, No Iterations 4
time step continuity errors : sum local = 3.19416e-14, global = 5.12521e-15, cumulative = -4.2662e-14
Pressure gradient source: uncorrected Ubar = 37.4995, pressure gradient = 8275.68
DILUPBiCGStab:  Solving for omega, Initial residual = 3.39872e-08, Final residual = 1.62492e-10, No Iterations 2
DILUPBiCGStab:  Solving for k, Initial residual = 0.00401125, Final residual = 2.33199e-05, No Iterations 2
bounding k, min: 0 max: 10.4342 average: 1.70325
ExecutionTime = 0.78 s  ClockTime = 7 s

Time = 66

DILUPBiCGStab:  Solving for Ux, Initial residual = 0.000714872, Final residual = 5.24155e-06, No Iterations 3
DILUPBiCGStab:  Solving for Uy, Initial residual = 0.148486, Final residual = 0.000624366, No Iterations 3
DILUPBiCGStab:  Solving for Uz, Initial residual = 0.152601, Final residual = 0.00091048, No Iterations 3
Pressure gradient source: uncorrected Ubar = 37.4965, pressure gradient = 9216.04
GAMG:  Solving for p, Initial residual = 0.0869975, Final residual = 0.00714897, No Iterations 4
time step continuity errors : sum local = 2.4207e-13, global = -2.09944e-13, cumulative = -2.52606e-13
Pressure gradient source: uncorrected Ubar = 37.4995, pressure gradient = 8405.16
DILUPBiCGStab:  Solving for omega, Initial residual = 3.34068e-08, Final residual = 1.40553e-10, No Iterations 2
DILUPBiCGStab:  Solving for k, Initial residual = 0.00385808, Final residual = 2.17573e-05, No Iterations 2
bounding k, min: 0 max: 10.7564 average: 1.78918
ExecutionTime = 0.79 s  ClockTime = 7 s

Time = 67

DILUPBiCGStab:  Solving for Ux, Initial residual = 0.00072175, Final residual = 5.20289e-06, No Iterations 3
DILUPBiCGStab:  Solving for Uy, Initial residual = 0.205706, Final residual = 0.00089222, No Iterations 3
DILUPBiCGStab:  Solving for Uz, Initial residual = 0.26593, Final residual = 0.00239363, No Iterations 3
Pressure gradient source: uncorrected Ubar = 37.4967, pressure gradient = 9328.03
GAMG:  Solving for p, Initial residual = 0.105779, Final residual = 0.00971217, No Iterations 4
time step continuity errors : sum local = 1.26886e-13, global = 6.17696e-14, cumulative = -1.90837e-13
Pressure gradient source: uncorrected Ubar = 37.4995, pressure gradient = 8532.6
DILUPBiCGStab:  Solving for omega, Initial residual = 3.28889e-08, Final residual = 1.2227e-10, No Iterations 2
DILUPBiCGStab:  Solving for k, Initial residual = 0.00371518, Final residual = 2.03182e-05, No Iterations 2
bounding k, min: 0 max: 11.0712 average: 1.87532
ExecutionTime = 0.8 s  ClockTime = 7 s

Time = 68

DILUPBiCGStab:  Solving for Ux, Initial residual = 0.000732819, Final residual = 5.17215e-06, No Iterations 3
DILUPBiCGStab:  Solving for Uy, Initial residual = 0.22834, Final residual = 0.00131979, No Iterations 3
DILUPBiCGStab:  Solving for Uz, Initial residual = 0.233682, Final residual = 0.0019771, No Iterations 3
Pressure gradient source: uncorrected Ubar = 37.4968, pressure gradient = 9436.87
GAMG:  Solving for p, Initial residual = 0.0920055, Final residual = 0.00581409, No Iterations 4
time step continuity errors : sum local = 2.48228e-13, global = -2.22431e-13, cumulative = -4.13268e-13
Pressure gradient source: uncorrected Ubar = 37.4996, pressure gradient = 8657.86
DILUPBiCGStab:  Solving for omega, Initial residual = 3.25837e-08, Final residual = 1.06954e-10, No Iterations 2
DILUPBiCGStab:  Solving for k, Initial residual = 0.00358014, Final residual = 1.90092e-05, No Iterations 2
bounding k, min: 0 max: 11.3785 average: 1.96159
ExecutionTime = 0.82 s  ClockTime = 7 s

Time = 69

DILUPBiCGStab:  Solving for Ux, Initial residual = 0.000745072, Final residual = 5.10913e-06, No Iterations 3
DILUPBiCGStab:  Solving for Uy, Initial residual = 0.17621, Final residual = 0.000595398, No Iterations 3
DILUPBiCGStab:  Solving for Uz, Initial residual = 0.167294, Final residual = 0.00161432, No Iterations 3
Pressure gradient source: uncorrected Ubar = 37.497, pressure gradient = 9541.73
GAMG:  Solving for p, Initial residual = 0.0851633, Final residual = 0.00566553, No Iterations 4
time step continuity errors : sum local = 2.30628e-13, global = -2.23943e-13, cumulative = -6.37211e-13
Pressure gradient source: uncorrected Ubar = 37.4996, pressure gradient = 8780.7
DILUPBiCGStab:  Solving for omega, Initial residual = 3.2325e-08, Final residual = 9.4875e-11, No Iterations 2
DILUPBiCGStab:  Solving for k, Initial residual = 0.00345106, Final residual = 1.77906e-05, No Iterations 2
[...]
DILUPBiCGStab:  Solving for Uy, Initial residual = 0.207389, Final residual = 0.00177914, No Iterations 2
DILUPBiCGStab:  Solving for Uz, Initial residual = 0.240865, Final residual = 0.0023527, No Iterations 2
Pressure gradient source: uncorrected Ubar = 37.5, pressure gradient = 13335.2
GAMG:  Solving for p, Initial residual = 0.0715311, Final residual = 0.00449546, No Iterations 4
time step continuity errors : sum local = 9.30961e-14, global = 4.23655e-14, cumulative = 8.64587e-13
Pressure gradient source: uncorrected Ubar = 37.5, pressure gradient = 13333.7
DILUPBiCGStab:  Solving for omega, Initial residual = 2.20671e-10, Final residual = 1.40259e-12, No Iterations 2
DILUPBiCGStab:  Solving for k, Initial residual = 5.74868e-06, Final residual = 4.05396e-08, No Iterations 2
bounding k, min: 0 max: 16.8708 average: 5.50267
ExecutionTime = 3.61 s  ClockTime = 10 s

Time = 316

DILUPBiCGStab:  Solving for Ux, Initial residual = 6.61669e-06, Final residual = 4.27572e-08, No Iterations 2
DILUPBiCGStab:  Solving for Uy, Initial residual = 0.320847, Final residual = 0.00293358, No Iterations 2
DILUPBiCGStab:  Solving for Uz, Initial residual = 0.181203, Final residual = 0.00137613, No Iterations 2
Pressure gradient source: uncorrected Ubar = 37.5, pressure gradient = 13335.2
GAMG:  Solving for p, Initial residual = 0.0841983, Final residual = 0.00697326, No Iterations 4
time step continuity errors : sum local = 1.2183e-13, global = 6.81128e-14, cumulative = 9.327e-13
Pressure gradient source: uncorrected Ubar = 37.5, pressure gradient = 13333.7
DILUPBiCGStab:  Solving for omega, Initial residual = 2.12216e-10, Final residual = 1.36168e-12, No Iterations 2
DILUPBiCGStab:  Solving for k, Initial residual = 5.70726e-06, Final residual = 4.03128e-08, No Iterations 2
bounding k, min: 0 max: 16.872 average: 5.50262
ExecutionTime = 3.62 s  ClockTime = 10 s

Time = 317

DILUPBiCGStab:  Solving for Ux, Initial residual = 6.37365e-06, Final residual = 4.11792e-08, No Iterations 2
DILUPBiCGStab:  Solving for Uy, Initial residual = 0.26209, Final residual = 0.0019809, No Iterations 2
DILUPBiCGStab:  Solving for Uz, Initial residual = 0.193311, Final residual = 0.00186522, No Iterations 2
Pressure gradient source: uncorrected Ubar = 37.5, pressure gradient = 13335.2
GAMG:  Solving for p, Initial residual = 0.0810021, Final residual = 0.00500571, No Iterations 4
time step continuity errors : sum local = 1.41037e-13, global = 1.23423e-13, cumulative = 1.05612e-12
Pressure gradient source: uncorrected Ubar = 37.5, pressure gradient = 13333.7
DILUPBiCGStab:  Solving for omega, Initial residual = 2.0395e-10, Final residual = 1.32094e-12, No Iterations 2
DILUPBiCGStab:  Solving for k, Initial residual = 5.66532e-06, Final residual = 4.00734e-08, No Iterations 2
bounding k, min: 0 max: 16.8731 average: 5.50258
ExecutionTime = 3.63 s  ClockTime = 10 s

Time = 318

DILUPBiCGStab:  Solving for Ux, Initial residual = 6.13544e-06, Final residual = 3.96381e-08, No Iterations 2
DILUPBiCGStab:  Solving for Uy, Initial residual = 0.174061, Final residual = 0.00132656, No Iterations 2
DILUPBiCGStab:  Solving for Uz, Initial residual = 0.208482, Final residual = 0.00182012, No Iterations 2
Pressure gradient source: uncorrected Ubar = 37.5, pressure gradient = 13335.2
GAMG:  Solving for p, Initial residual = 0.0910187, Final residual = 0.0056626, No Iterations 4
time step continuity errors : sum local = 9.49821e-14, global = -3.9387e-14, cumulative = 1.01674e-12
Pressure gradient source: uncorrected Ubar = 37.5, pressure gradient = 13333.8
DILUPBiCGStab:  Solving for omega, Initial residual = 1.95903e-10, Final residual = 1.28041e-12, No Iterations 2
DILUPBiCGStab:  Solving for k, Initial residual = 5.62435e-06, Final residual = 3.98349e-08, No Iterations 2
bounding k, min: 0 max: 16.8743 average: 5.50256
ExecutionTime = 3.64 s  ClockTime = 10 s

Time = 319

DILUPBiCGStab:  Solving for Ux, Initial residual = 5.90213e-06, Final residual = 3.81325e-08, No Iterations 2
DILUPBiCGStab:  Solving for Uy, Initial residual = 0.30751, Final residual = 0.00291868, No Iterations 2
DILUPBiCGStab:  Solving for Uz, Initial residual = 0.414745, Final residual = 0.00382771, No Iterations 2
Pressure gradient source: uncorrected Ubar = 37.5, pressure gradient = 13335.3
GAMG:  Solving for p, Initial residual = 0.0929403, Final residual = 0.00811913, No Iterations 4
time step continuity errors : sum local = 2.7868e-13, global = 1.95074e-13, cumulative = 1.21181e-12
Pressure gradient source: uncorrected Ubar = 37.5, pressure gradient = 13333.8
DILUPBiCGStab:  Solving for omega, Initial residual = 1.88039e-10, Final residual = 1.24034e-12, No Iterations 2
DILUPBiCGStab:  Solving for k, Initial residual = 5.58385e-06, Final residual = 3.95772e-08, No Iterations 2
bounding k, min: 0 max: 16.8754 average: 5.50254
ExecutionTime = 3.66 s  ClockTime = 10 s

Time = 320

DILUPBiCGStab:  Solving for Ux, Initial residual = 5.6738e-06, Final residual = 3.66627e-08, No Iterations 2
DILUPBiCGStab:  Solving for Uy, Initial residual = 0.396102, Final residual = 0.00374542, No Iterations 2
DILUPBiCGStab:  Solving for Uz, Initial residual = 0.368348, Final residual = 0.00284912, No Iterations 2
Pressure gradient source: uncorrected Ubar = 37.5, pressure gradient = 13335.3
GAMG:  Solving for p, Initial residual = 0.0945986, Final residual = 0.00547065, No Iterations 4
time step continuity errors : sum local = 3.05476e-13, global = 2.61517e-13, cumulative = 1.47333e-12
Pressure gradient source: uncorrected Ubar = 37.5, pressure gradient = 13333.8
DILUPBiCGStab:  Solving for omega, Initial residual = 1.80362e-10, Final residual = 1.20085e-12, No Iterations 2
DILUPBiCGStab:  Solving for k, Initial residual = 5.54308e-06, Final residual = 3.93163e-08, No Iterations 2
bounding k, min: 0 max: 16.8766 average: 5.50253
ExecutionTime = 3.67 s  ClockTime = 10 s

Time = 321

DILUPBiCGStab:  Solving for Ux, Initial residual = 5.45032e-06, Final residual = 3.52284e-08, No Iterations 2
DILUPBiCGStab:  Solving for Uy, Initial residual = 0.243834, Final residual = 0.000685907, No Iterations 3
DILUPBiCGStab:  Solving for Uz, Initial residual = 0.264606, Final residual = 0.00221255, No Iterations 2
Pressure gradient source: uncorrected Ubar = 37.5, pressure gradient = 13335.4
GAMG:  Solving for p, Initial residual = 0.0899344, Final residual = 0.00883105, No Iterations 4
time step continuity errors : sum local = 2.59123e-13, global = 1.92733e-13, cumulative = 1.66606e-12
Pressure gradient source: uncorrected Ubar = 37.5, pressure gradient = 13333.9
DILUPBiCGStab:  Solving for omega, Initial residual = 1.72874e-10, Final residual = 1.16235e-12, No Iterations 2
DILUPBiCGStab:  Solving for k, Initial residual = 5.50123e-06, Final residual = 3.90428e-08, No Iterations 2
bounding k, min: 0 max: 16.8777 average: 5.50253
ExecutionTime = 3.68 s  ClockTime = 10 s

Time = 322

DILUPBiCGStab:  Solving for Ux, Initial residual = 5.2317e-06, Final residual = 3.38292e-08, No Iterations 2
DILUPBiCGStab:  Solving for Uy, Initial residual = 0.208381, Final residual = 0.00183568, No Iterations 2
DILUPBiCGStab:  Solving for Uz, Initial residual = 0.185789, Final residual = 0.00183874, No Iterations 2
Pressure gradient source: uncorrected Ubar = 37.5, pressure gradient = 13335.4
GAMG:  Solving for p, Initial residual = 0.0907288, Final residual = 0.00730104, No Iterations 4
time step continuity errors : sum local = 2.68969e-13, global = 2.14265e-13, cumulative = 1.88032e-12
Pressure gradient source: uncorrected Ubar = 37.5, pressure gradient = 13334
DILUPBiCGStab:  Solving for omega, Initial residual = 1.65575e-10, Final residual = 1.12408e-12, No Iterations 2
DILUPBiCGStab:  Solving for k, Initial residual = 5.45976e-06, Final residual = 3.87694e-08, No Iterations 2
bounding k, min: 0 max: 16.8788 average: 5.50253
ExecutionTime = 3.69 s  ClockTime = 10 s

Time = 323

DILUPBiCGStab:  Solving for Ux, Initial residual = 5.01792e-06, Final residual = 3.24622e-08, No Iterations 2
DILUPBiCGStab:  Solving for Uy, Initial residual = 0.206752, Final residual = 0.00101139, No Iterations 2
DILUPBiCGStab:  Solving for Uz, Initial residual = 0.253794, Final residual = 0.000708732, No Iterations 3
Pressure gradient source: uncorrected Ubar = 37.5, pressure gradient = 13335.5
GAMG:  Solving for p, Initial residual = 0.0948076, Final residual = 0.00770188, No Iterations 4
time step continuity errors : sum local = 5.10664e-14, global = -7.55653e-15, cumulative = 1.87277e-12
Pressure gradient source: uncorrected Ubar = 37.5, pressure gradient = 13334
DILUPBiCGStab:  Solving for omega, Initial residual = 1.58489e-10, Final residual = 1.08633e-12, No Iterations 2
DILUPBiCGStab:  Solving for k, Initial residual = 5.41685e-06, Final residual = 3.84875e-08, No Iterations 2
bounding k, min: 0 max: 16.8799 average: 5.50255
ExecutionTime = 3.7 s  ClockTime = 10 s

Time = 324

DILUPBiCGStab:  Solving for Ux, Initial residual = 4.80898e-06, Final residual = 3.11256e-08, No Iterations 2
DILUPBiCGStab:  Solving for Uy, Initial residual = 0.366735, Final residual = 0.00304749, No Iterations 2
DILUPBiCGStab:  Solving for Uz, Initial residual = 0.266164, Final residual = 0.0021944, No Iterations 2
Pressure gradient source: uncorrected Ubar = 37.5, pressure gradient = 13335.6
GAMG:  Solving for p, Initial residual = 0.105847, Final residual = 0.00762533, No Iterations 5
time step continuity errors : sum local = 4.09857e-13, global = 2.5642e-13, cumulative = 2.12919e-12
Pressure gradient source: uncorrected Ubar = 37.5, pressure gradient = 13334.1
DILUPBiCGStab:  Solving for omega, Initial residual = 1.5159e-10, Final residual = 1.04902e-12, No Iterations 2
DILUPBiCGStab:  Solving for k, Initial residual = 5.37418e-06, Final residual = 3.82028e-08, No Iterations 2
bounding k, min: 0 max: 16.881 average: 5.50257
ExecutionTime = 3.71 s  ClockTime = 10 s

Time = 325

DILUPBiCGStab:  Solving for Ux, Initial residual = 4.60486e-06, Final residual = 2.98211e-08, No Iterations 2
DILUPBiCGStab:  Solving for Uy, Initial residual = 0.399799, Final residual = 0.0037233, No Iterations 2
DILUPBiCGStab:  Solving for Uz, Initial residual = 0.383333, Final residual = 0.00304839, No Iterations 2
Pressure gradient source: uncorrected Ubar = 37.5, pressure gradient = 13335.6
GAMG:  Solving for p, Initial residual = 0.0930283, Final residual = 0.00843378, No Iterations 4
time step continuity errors : sum local = 1.69018e-13, global = 8.0728e-14, cumulative = 2.20992e-12
Pressure gradient source: uncorrected Ubar = 37.5, pressure gradient = 13334.2
DILUPBiCGStab:  Solving for omega, Initial residual = 1.44887e-10, Final residual = 1.01241e-12, No Iterations 2
DILUPBiCGStab:  Solving for k, Initial residual = 5.33099e-06, Final residual = 3.79169e-08, No Iterations 2
bounding k, min: 0 max: 16.8821 average: 5.5026
ExecutionTime = 3.72 s  ClockTime = 10 s

Time = 326

DILUPBiCGStab:  Solving for Ux, Initial residual = 4.40553e-06, Final residual = 2.85468e-08, No Iterations 2
DILUPBiCGStab:  Solving for Uy, Initial residual = 0.235684, Final residual = 0.00230611, No Iterations 2
DILUPBiCGStab:  Solving for Uz, Initial residual = 0.194459, Final residual = 0.00182977, No Iterations 2
Pressure gradient source: uncorrected Ubar = 37.5, pressure gradient = 13335.7
GAMG:  Solving for p, Initial residual = 0.0850097, Final residual = 0.00525972, No Iterations 5
time step continuity errors : sum local = 6.01626e-14, global = 2.4835e-14, cumulative = 2.23475e-12
Pressure gradient source: uncorrected Ubar = 37.5, pressure gradient = 13334.3
DILUPBiCGStab:  Solving for omega, Initial residual = 1.38366e-10, Final residual = 9.76106e-13, No Iterations 2
DILUPBiCGStab:  Solving for k, Initial residual = 5.28708e-06, Final residual = 3.76268e-08, No Iterations 2
bounding k, min: 0 max: 16.8832 average: 5.50263
ExecutionTime = 3.73 s  ClockTime = 10 s

Time = 327

DILUPBiCGStab:  Solving for Ux, Initial residual = 4.21099e-06, Final residual = 2.73036e-08, No Iterations 2
DILUPBiCGStab:  Solving for Uy, Initial residual = 0.391602, Final residual = 0.00324226, No Iterations 2
DILUPBiCGStab:  Solving for Uz, Initial residual = 0.321779, Final residual = 0.00283415, No Iterations 2
Pressure gradient source: uncorrected Ubar = 37.5, pressure gradient = 13335.8
GAMG:  Solving for p, Initial residual = 0.0845866, Final residual = 0.00576879, No Iterations 5
time step continuity errors : sum local = 1.42157e-13, global = 1.04403e-13, cumulative = 2.33915e-12
Pressure gradient source: uncorrected Ubar = 37.5, pressure gradient = 13334.4
DILUPBiCGStab:  Solving for omega, Initial residual = 1.32036e-10, Final residual = 9.40322e-13, No Iterations 2
DILUPBiCGStab:  Solving for k, Initial residual = 5.24198e-06, Final residual = 3.73299e-08, No Iterations 2
bounding k, min: 0 max: 16.8842 average: 5.50267
ExecutionTime = 3.74 s  ClockTime = 10 s

Time = 328

DILUPBiCGStab:  Solving for Ux, Initial residual = 4.02119e-06, Final residual = 2.60992e-08, No Iterations 2
DILUPBiCGStab:  Solving for Uy, Initial residual = 0.223167, Final residual = 0.00111519, No Iterations 2
DILUPBiCGStab:  Solving for Uz, Initial residual = 0.261168, Final residual = 0.00199132, No Iterations 2
Pressure gradient source: uncorrected Ubar = 37.5, pressure gradient = 13335.9
GAMG:  Solving for p, Initial residual = 0.0905753, Final residual = 0.00738763, No Iterations 5
time step continuity errors : sum local = 4.24038e-13, global = 3.69369e-13, cumulative = 2.70852e-12
Pressure gradient source: uncorrected Ubar = 37.5, pressure gradient = 13334.5
DILUPBiCGStab:  Solving for omega, Initial residual = 1.25897e-10, Final residual = 9.06319e-13, No Iterations 2
DILUPBiCGStab:  Solving for k, Initial residual = 5.1965e-06, Final residual = 3.70217e-08, No Iterations 2
bounding k, min: 0 max: 16.8852 average: 5.50272
ExecutionTime = 3.75 s  ClockTime = 10 s

Time = 329

DILUPBiCGStab:  Solving for Ux, Initial residual = 3.8368e-06, Final residual = 2.49319e-08, No Iterations 2
DILUPBiCGStab:  Solving for Uy, Initial residual = 0.472127, Final residual = 0.00379347, No Iterations 2
DILUPBiCGStab:  Solving for Uz, Initial residual = 0.36576, Final residual = 0.00310213, No Iterations 2
Pressure gradient source: uncorrected Ubar = 37.5, pressure gradient = 13336
GAMG:  Solving for p, Initial residual = 0.109333, Final residual = 0.0081405, No Iterations 5
time step continuity errors : sum local = 9.10343e-14, global = -3.32264e-15, cumulative = 2.7052e-12
Pressure gradient source: uncorrected Ubar = 37.5, pressure gradient = 13334.6
DILUPBiCGStab:  Solving for omega, Initial residual = 1.20231e-10, Final residual = 8.74469e-13, No Iterations 2
DILUPBiCGStab:  Solving for k, Initial residual = 5.1503e-06, Final residual = 3.67133e-08, No Iterations 2
bounding k, min: 0 max: 16.8862 average: 5.50277
ExecutionTime = 3.76 s  ClockTime = 10 s

Time = 330

DILUPBiCGStab:  Solving for Ux, Initial residual = 3.66219e-06, Final residual = 2.3796e-08, No Iterations 2
DILUPBiCGStab:  Solving for Uy, Initial residual = 0.419311, Final residual = 0.00307467, No Iterations 2
DILUPBiCGStab:  Solving for Uz, Initial residual = 0.390742, Final residual = 0.00247838, No Iterations 2
Pressure gradient source: uncorrected Ubar = 37.5, pressure gradient = 13336.1
GAMG:  Solving for p, Initial residual = 0.113633, Final residual = 0.00794279, No Iterations 6
time step continuity errors : sum local = 3.47658e-13, global = 2.87055e-13, cumulative = 2.99226e-12
Pressure gradient source: uncorrected Ubar = 37.5, pressure gradient = 13334.7
DILUPBiCGStab:  Solving for omega, Initial residual = 1.15095e-10, Final residual = 8.44455e-13, No Iterations 2
DILUPBiCGStab:  Solving for k, Initial residual = 5.10297e-06, Final residual = 3.6397e-08, No Iterations 2
bounding k, min: 0 max: 16.8872 average: 5.50283
ExecutionTime = 3.77 s  ClockTime = 10 s

Time = 331

DILUPBiCGStab:  Solving for Ux, Initial residual = 3.49715e-06, Final residual = 2.26992e-08, No Iterations 2
DILUPBiCGStab:  Solving for Uy, Initial residual = 0.364174, Final residual = 0.00340191, No Iterations 2
DILUPBiCGStab:  Solving for Uz, Initial residual = 0.364604, Final residual = 0.00303976, No Iterations 2
Pressure gradient source: uncorrected Ubar = 37.5, pressure gradient = 13336.2
GAMG:  Solving for p, Initial residual = 0.0982486, Final residual = 0.00926566, No Iterations 4
time step continuity errors : sum local = 1.87079e-13, global = 9.52512e-14, cumulative = 3.08751e-12
Pressure gradient source: uncorrected Ubar = 37.5, pressure gradient = 13334.8
DILUPBiCGStab:  Solving for omega, Initial residual = 1.10297e-10, Final residual = 8.16816e-13, No Iterations 2
DILUPBiCGStab:  Solving for k, Initial residual = 5.05538e-06, Final residual = 3.60793e-08, No Iterations 2
bounding k, min: 0 max: 16.8882 average: 5.50289
ExecutionTime = 3.79 s  ClockTime = 10 s

Time = 332

DILUPBiCGStab:  Solving for Ux, Initial residual = 3.33997e-06, Final residual = 2.16395e-08, No Iterations 2
DILUPBiCGStab:  Solving for Uy, Initial residual = 0.26151, Final residual = 0.00183519, No Iterations 2
DILUPBiCGStab:  Solving for Uz, Initial residual = 0.208262, Final residual = 0.00181214, No Iterations 2
Pressure gradient source: uncorrected Ubar = 37.5, pressure gradient = 13336.3
GAMG:  Solving for p, Initial residual = 0.0860272, Final residual = 0.00735811, No Iterations 6
time step continuity errors : sum local = 3.47263e-13, global = 2.883e-13, cumulative = 3.37581e-12
Pressure gradient source: uncorrected Ubar = 37.5, pressure gradient = 13334.9
DILUPBiCGStab:  Solving for omega, Initial residual = 1.05976e-10, Final residual = 7.91648e-13, No Iterations 2
DILUPBiCGStab:  Solving for k, Initial residual = 5.00643e-06, Final residual = 3.57486e-08, No Iterations 2
bounding k, min: 0 max: 16.8892 average: 5.50296
ExecutionTime = 3.8 s  ClockTime = 10 s

Time = 333

DILUPBiCGStab:  Solving for Ux, Initial residual = 3.19259e-06, Final residual = 2.06213e-08, No Iterations 2
DILUPBiCGStab:  Solving for Uy, Initial residual = 0.244792, Final residual = 0.000649672, No Iterations 3
DILUPBiCGStab:  Solving for Uz, Initial residual = 0.416842, Final residual = 0.0027199, No Iterations 2
Pressure gradient source: uncorrected Ubar = 37.5, pressure gradient = 13336.4
GAMG:  Solving for p, Initial residual = 0.0905894, Final residual = 0.00867014, No Iterations 5
time step continuity errors : sum local = 1.16924e-13, global = 5.48406e-14, cumulative = 3.43065e-12
Pressure gradient source: uncorrected Ubar = 37.5, pressure gradient = 13335.1
DILUPBiCGStab:  Solving for omega, Initial residual = 1.02013e-10, Final residual = 7.68515e-13, No Iterations 2
DILUPBiCGStab:  Solving for k, Initial residual = 4.95697e-06, Final residual = 3.54116e-08, No Iterations 2
bounding k, min: 0 max: 16.8901 average: 5.50303
ExecutionTime = 3.81 s  ClockTime = 10 s

Time = 334

DILUPBiCGStab:  Solving for Ux, Initial residual = 3.0535e-06, Final residual = 1.96483e-08, No Iterations 2
DILUPBiCGStab:  Solving for Uy, Initial residual = 0.344701, Final residual = 0.00341525, No Iterations 2
DILUPBiCGStab:  Solving for Uz, Initial residual = 0.294875, Final residual = 0.00256986, No Iterations 2
Pressure gradient source: uncorrected Ubar = 37.5, pressure gradient = 13336.5
GAMG:  Solving for p, Initial residual = 0.0936012, Final residual = 0.00822237, No Iterations 6
time step continuity errors : sum local = 3.59336e-13, global = 2.48916e-13, cumulative = 3.67956e-12
Pressure gradient source: uncorrected Ubar = 37.5, pressure gradient = 13335.2
DILUPBiCGStab:  Solving for omega, Initial residual = 9.83534e-11, Final residual = 7.47367e-13, No Iterations 2
DILUPBiCGStab:  Solving for k, Initial residual = 4.90646e-06, Final residual = 3.50691e-08, No Iterations 2
bounding k, min: 0 max: 16.8911 average: 5.5031
ExecutionTime = 3.82 s  ClockTime = 10 s


SIMPLE solution converged in 334 iterations

End

