/*---------------------------------------------------------------------------*\
  =========                 |
  \\      /  F ield         | OpenFOAM: The Open Source CFD Toolbox
   \\    /   O peration     | Website:  https://openfoam.org
    \\  /    A nd           | Version:  7
     \\/     M anipulation  |
\*---------------------------------------------------------------------------*/
Build  : 7-3bcbaf946ae9
Exec   : simpleFoam
Date   : May 08 2023
Time   : 20:48:49
Host   : "kaj-HP-ZBook-Studio-G4"
PID    : 225917
I/O    : uncollated
Case   : /home/kaj/Documents/thesis/finalCases/rectDuct/AR_3_Ret_180/00Baseline/beta11
nProcs : 1
sigFpe : Enabling floating point exception trapping (FOAM_SIGFPE).
fileModificationChecking : Monitoring run-time modified files using timeStampMaster (fileModificationSkew 10)
allowSystemOperations : Allowing user-supplied system call operations

// * * * * * * * * * * * * * * * * * * * * * * * * * * * * * * * * * * * * * //
Create time

Using #calcEntry at line 4 in file "/home/kaj/Documents/thesis/finalCases/rectDuct/AR_3_Ret_180/00Baseline/beta11/system/controlDict.functions.convergenceProbes"
Using #codeStream with "/home/kaj/Documents/thesis/finalCases/rectDuct/AR_3_Ret_180/00Baseline/beta11/dynamicCode/platforms/linux64GccDPInt32Opt/lib/libcodeStream_e305d05308d1ade03f6eb88824101ddb2eba3278.so"
Creating new library in "dynamicCode/_e305d05308d1ade03f6eb88824101ddb2eba3278/platforms/linux64GccDPInt32Opt/lib/libcodeStream_e305d05308d1ade03f6eb88824101ddb2eba3278.so"
Invoking "wmake -s libso /home/kaj/Documents/thesis/finalCases/rectDuct/AR_3_Ret_180/00Baseline/beta11/dynamicCode/_e305d05308d1ade03f6eb88824101ddb2eba3278"
wmake libso /home/kaj/Documents/thesis/finalCases/rectDuct/AR_3_Ret_180/00Baseline/beta11/dynamicCode/_e305d05308d1ade03f6eb88824101ddb2eba3278
    wmkdep: codeStreamTemplate.C
    Ctoo: codeStreamTemplate.C
    ld: /home/kaj/Documents/thesis/finalCases/rectDuct/AR_3_Ret_180/00Baseline/beta11/dynamicCode/_e305d05308d1ade03f6eb88824101ddb2eba3278/../platforms/linux64GccDPInt32Opt/lib/libcodeStream_e305d05308d1ade03f6eb88824101ddb2eba3278.so
Using #calcEntry at line 5 in file "/home/kaj/Documents/thesis/finalCases/rectDuct/AR_3_Ret_180/00Baseline/beta11/system/controlDict.functions.convergenceProbes"
Using #codeStream with "/home/kaj/Documents/thesis/finalCases/rectDuct/AR_3_Ret_180/00Baseline/beta11/dynamicCode/platforms/linux64GccDPInt32Opt/lib/libcodeStream_8f3c4192690bcc53a34cf723aeeab9b62f638bd7.so"
Creating new library in "dynamicCode/_8f3c4192690bcc53a34cf723aeeab9b62f638bd7/platforms/linux64GccDPInt32Opt/lib/libcodeStream_8f3c4192690bcc53a34cf723aeeab9b62f638bd7.so"
Invoking "wmake -s libso /home/kaj/Documents/thesis/finalCases/rectDuct/AR_3_Ret_180/00Baseline/beta11/dynamicCode/_8f3c4192690bcc53a34cf723aeeab9b62f638bd7"
wmake libso /home/kaj/Documents/thesis/finalCases/rectDuct/AR_3_Ret_180/00Baseline/beta11/dynamicCode/_8f3c4192690bcc53a34cf723aeeab9b62f638bd7
    wmkdep: codeStreamTemplate.C
    Ctoo: codeStreamTemplate.C
    ld: /home/kaj/Documents/thesis/finalCases/rectDuct/AR_3_Ret_180/00Baseline/beta11/dynamicCode/_8f3c4192690bcc53a34cf723aeeab9b62f638bd7/../platforms/linux64GccDPInt32Opt/lib/libcodeStream_8f3c4192690bcc53a34cf723aeeab9b62f638bd7.so
Using #calcEntry at line 6 in file "/home/kaj/Documents/thesis/finalCases/rectDuct/AR_3_Ret_180/00Baseline/beta11/system/controlDict.functions.convergenceProbes"
Using #codeStream with "/home/kaj/Documents/thesis/finalCases/rectDuct/AR_3_Ret_180/00Baseline/beta11/dynamicCode/platforms/linux64GccDPInt32Opt/lib/libcodeStream_a2727cef0b180b3b2f6a19fffe5ff7cc3de40b59.so"
Creating new library in "dynamicCode/_a2727cef0b180b3b2f6a19fffe5ff7cc3de40b59/platforms/linux64GccDPInt32Opt/lib/libcodeStream_a2727cef0b180b3b2f6a19fffe5ff7cc3de40b59.so"
Invoking "wmake -s libso /home/kaj/Documents/thesis/finalCases/rectDuct/AR_3_Ret_180/00Baseline/beta11/dynamicCode/_a2727cef0b180b3b2f6a19fffe5ff7cc3de40b59"
wmake libso /home/kaj/Documents/thesis/finalCases/rectDuct/AR_3_Ret_180/00Baseline/beta11/dynamicCode/_a2727cef0b180b3b2f6a19fffe5ff7cc3de40b59
    wmkdep: codeStreamTemplate.C
    Ctoo: codeStreamTemplate.C
    ld: /home/kaj/Documents/thesis/finalCases/rectDuct/AR_3_Ret_180/00Baseline/beta11/dynamicCode/_a2727cef0b180b3b2f6a19fffe5ff7cc3de40b59/../platforms/linux64GccDPInt32Opt/lib/libcodeStream_a2727cef0b180b3b2f6a19fffe5ff7cc3de40b59.so
Using #calcEntry at line 7 in file "/home/kaj/Documents/thesis/finalCases/rectDuct/AR_3_Ret_180/00Baseline/beta11/system/controlDict.functions.convergenceProbes"
Using #codeStream with "/home/kaj/Documents/thesis/finalCases/rectDuct/AR_3_Ret_180/00Baseline/beta11/dynamicCode/platforms/linux64GccDPInt32Opt/lib/libcodeStream_77c1b515a8b088b67e1d737b2fbdc78df2ebf6b8.so"
Creating new library in "dynamicCode/_77c1b515a8b088b67e1d737b2fbdc78df2ebf6b8/platforms/linux64GccDPInt32Opt/lib/libcodeStream_77c1b515a8b088b67e1d737b2fbdc78df2ebf6b8.so"
Invoking "wmake -s libso /home/kaj/Documents/thesis/finalCases/rectDuct/AR_3_Ret_180/00Baseline/beta11/dynamicCode/_77c1b515a8b088b67e1d737b2fbdc78df2ebf6b8"
wmake libso /home/kaj/Documents/thesis/finalCases/rectDuct/AR_3_Ret_180/00Baseline/beta11/dynamicCode/_77c1b515a8b088b67e1d737b2fbdc78df2ebf6b8
    wmkdep: codeStreamTemplate.C
    Ctoo: codeStreamTemplate.C
    ld: /home/kaj/Documents/thesis/finalCases/rectDuct/AR_3_Ret_180/00Baseline/beta11/dynamicCode/_77c1b515a8b088b67e1d737b2fbdc78df2ebf6b8/../platforms/linux64GccDPInt32Opt/lib/libcodeStream_77c1b515a8b088b67e1d737b2fbdc78df2ebf6b8.so
Using #calcEntry at line 8 in file "/home/kaj/Documents/thesis/finalCases/rectDuct/AR_3_Ret_180/00Baseline/beta11/system/controlDict.functions.convergenceProbes"
Using #codeStream with "/home/kaj/Documents/thesis/finalCases/rectDuct/AR_3_Ret_180/00Baseline/beta11/dynamicCode/platforms/linux64GccDPInt32Opt/lib/libcodeStream_b45c68bb8d82afc46655e39440f24b8490cecfc5.so"
Creating new library in "dynamicCode/_b45c68bb8d82afc46655e39440f24b8490cecfc5/platforms/linux64GccDPInt32Opt/lib/libcodeStream_b45c68bb8d82afc46655e39440f24b8490cecfc5.so"
Invoking "wmake -s libso /home/kaj/Documents/thesis/finalCases/rectDuct/AR_3_Ret_180/00Baseline/beta11/dynamicCode/_b45c68bb8d82afc46655e39440f24b8490cecfc5"
wmake libso /home/kaj/Documents/thesis/finalCases/rectDuct/AR_3_Ret_180/00Baseline/beta11/dynamicCode/_b45c68bb8d82afc46655e39440f24b8490cecfc5
    wmkdep: codeStreamTemplate.C
    Ctoo: codeStreamTemplate.C
    ld: /home/kaj/Documents/thesis/finalCases/rectDuct/AR_3_Ret_180/00Baseline/beta11/dynamicCode/_b45c68bb8d82afc46655e39440f24b8490cecfc5/../platforms/linux64GccDPInt32Opt/lib/libcodeStream_b45c68bb8d82afc46655e39440f24b8490cecfc5.so
Using #calcEntry at line 9 in file "/home/kaj/Documents/thesis/finalCases/rectDuct/AR_3_Ret_180/00Baseline/beta11/system/controlDict.functions.convergenceProbes"
Using #codeStream with "/home/kaj/Documents/thesis/finalCases/rectDuct/AR_3_Ret_180/00Baseline/beta11/dynamicCode/platforms/linux64GccDPInt32Opt/lib/libcodeStream_18bb787ec38025679734a8373922a0c147b9578e.so"
Creating new library in "dynamicCode/_18bb787ec38025679734a8373922a0c147b9578e/platforms/linux64GccDPInt32Opt/lib/libcodeStream_18bb787ec38025679734a8373922a0c147b9578e.so"
Invoking "wmake -s libso /home/kaj/Documents/thesis/finalCases/rectDuct/AR_3_Ret_180/00Baseline/beta11/dynamicCode/_18bb787ec38025679734a8373922a0c147b9578e"
wmake libso /home/kaj/Documents/thesis/finalCases/rectDuct/AR_3_Ret_180/00Baseline/beta11/dynamicCode/_18bb787ec38025679734a8373922a0c147b9578e
    wmkdep: codeStreamTemplate.C
    Ctoo: codeStreamTemplate.C
    ld: /home/kaj/Documents/thesis/finalCases/rectDuct/AR_3_Ret_180/00Baseline/beta11/dynamicCode/_18bb787ec38025679734a8373922a0c147b9578e/../platforms/linux64GccDPInt32Opt/lib/libcodeStream_18bb787ec38025679734a8373922a0c147b9578e.so
Create mesh for time = 0


SIMPLE: Convergence criteria found
        k: tolerance 5e-06
        omega: tolerance 1e-10

Reading field p

Reading field U

Using #calcEntry at line 19 in file "/home/kaj/Documents/thesis/finalCases/rectDuct/AR_3_Ret_180/00Baseline/beta11/0/U"
Using #codeStream with "/home/kaj/Documents/thesis/finalCases/rectDuct/AR_3_Ret_180/00Baseline/beta11/dynamicCode/platforms/linux64GccDPInt32Opt/lib/libcodeStream_eda4ec75e4f3d037e7c16f5d19af03d1b0ef486d.so"
Creating new library in "dynamicCode/_eda4ec75e4f3d037e7c16f5d19af03d1b0ef486d/platforms/linux64GccDPInt32Opt/lib/libcodeStream_eda4ec75e4f3d037e7c16f5d19af03d1b0ef486d.so"
Invoking "wmake -s libso /home/kaj/Documents/thesis/finalCases/rectDuct/AR_3_Ret_180/00Baseline/beta11/dynamicCode/_eda4ec75e4f3d037e7c16f5d19af03d1b0ef486d"
wmake libso /home/kaj/Documents/thesis/finalCases/rectDuct/AR_3_Ret_180/00Baseline/beta11/dynamicCode/_eda4ec75e4f3d037e7c16f5d19af03d1b0ef486d
    wmkdep: codeStreamTemplate.C
    Ctoo: codeStreamTemplate.C
    ld: /home/kaj/Documents/thesis/finalCases/rectDuct/AR_3_Ret_180/00Baseline/beta11/dynamicCode/_eda4ec75e4f3d037e7c16f5d19af03d1b0ef486d/../platforms/linux64GccDPInt32Opt/lib/libcodeStream_eda4ec75e4f3d037e7c16f5d19af03d1b0ef486d.so
Reading/calculating face flux field phi

Selecting incompressible transport model Newtonian
Selecting turbulence model type RAS
Selecting RAS turbulence model kOmegaSST
Selecting patchDistMethod meshWave
bounding k, min: 0 max: 0.02 average: 0.02
RAS
{
    RASModel        kOmegaSST;
    turbulence      on;
    printCoeffs     on;
    alphaK1         0.85;
    alphaK2         1;
    alphaOmega1     0.5;
    alphaOmega2     0.856;
    gamma1          0.555556;
    gamma2          0.44;
    beta1           0.075;
    beta2           0.0828;
    betaStar        0.09;
    a1              0.31;
    b1              1;
    c1              10;
    F3              false;
}

No MRF models present

Creating finite volume options from "system/fvOptions"

Using #calcEntry at line 20 in file "/home/kaj/Documents/thesis/finalCases/rectDuct/AR_3_Ret_180/00Baseline/beta11/system/fvOptions"
Selecting finite volume options model type meanVelocityForce
    Source: meanVelocity1
    - selecting all cells
    - selected 6627 cell(s) with volume 3e-09
    Initial pressure gradient = 0


Starting time loop

Time = 1

DILUPBiCGStab:  Solving for Ux, Initial residual = 1, Final residual = 0.0091478, No Iterations 1
DILUPBiCGStab:  Solving for Uy, Initial residual = 0.957167, Final residual = 0.00258221, No Iterations 2
DILUPBiCGStab:  Solving for Uz, Initial residual = 0.955719, Final residual = 0.00916687, No Iterations 1
Pressure gradient source: uncorrected Ubar = 38.7066, pressure gradient = 40034.4
GAMG:  Solving for p, Initial residual = 0.253882, Final residual = 0.024905, No Iterations 3
time step continuity errors : sum local = 2.88608e-14, global = -1.65652e-14, cumulative = -1.65652e-14
Pressure gradient source: uncorrected Ubar = 38.7138, pressure gradient = 5778.93
DILUPBiCGStab:  Solving for omega, Initial residual = 0.16244, Final residual = 0.00146329, No Iterations 1
DILUPBiCGStab:  Solving for k, Initial residual = 1, Final residual = 0.00904713, No Iterations 1
bounding k, min: 0 max: 0.0414407 average: 0.0218333
ExecutionTime = 0.15 s  ClockTime = 7 s

Time = 2

DILUPBiCGStab:  Solving for Ux, Initial residual = 0.715118, Final residual = 0.00177376, No Iterations 1
DILUPBiCGStab:  Solving for Uy, Initial residual = 0.938121, Final residual = 0.00847218, No Iterations 2
DILUPBiCGStab:  Solving for Uz, Initial residual = 0.90293, Final residual = 0.00611552, No Iterations 2
Pressure gradient source: uncorrected Ubar = 38.6242, pressure gradient = 53804.2
GAMG:  Solving for p, Initial residual = 0.783653, Final residual = 0.0484067, No Iterations 4
time step continuity errors : sum local = 1.85642e-12, global = 3.89803e-14, cumulative = 2.24152e-14
Pressure gradient source: uncorrected Ubar = 38.7053, pressure gradient = 10897.3
DILUPBiCGStab:  Solving for omega, Initial residual = 0.0601417, Final residual = 2.08103e-05, No Iterations 1
DILUPBiCGStab:  Solving for k, Initial residual = 0.664437, Final residual = 0.000889901, No Iterations 1
bounding k, min: 0 max: 0.0200601 average: 0.0177146
ExecutionTime = 0.18 s  ClockTime = 7 s

Time = 3

DILUPBiCGStab:  Solving for Ux, Initial residual = 0.0667127, Final residual = 0.000454125, No Iterations 2
DILUPBiCGStab:  Solving for Uy, Initial residual = 0.8506, Final residual = 0.00521234, No Iterations 3
DILUPBiCGStab:  Solving for Uz, Initial residual = 0.604883, Final residual = 0.00440762, No Iterations 3
Pressure gradient source: uncorrected Ubar = 39.1002, pressure gradient = -47610.9
GAMG:  Solving for p, Initial residual = 0.807737, Final residual = 0.0422618, No Iterations 4
time step continuity errors : sum local = 2.4588e-12, global = -4.92571e-14, cumulative = -2.68419e-14
Pressure gradient source: uncorrected Ubar = 38.7762, pressure gradient = 1600.39
DILUPBiCGStab:  Solving for omega, Initial residual = 0.00385489, Final residual = 3.20183e-06, No Iterations 1
DILUPBiCGStab:  Solving for k, Initial residual = 0.159215, Final residual = 0.000504628, No Iterations 1
bounding k, min: 0 max: 0.0200726 average: 0.0159558
ExecutionTime = 0.22 s  ClockTime = 7 s

Time = 4

DILUPBiCGStab:  Solving for Ux, Initial residual = 0.0307896, Final residual = 0.000154967, No Iterations 2
DILUPBiCGStab:  Solving for Uy, Initial residual = 0.79993, Final residual = 0.00572559, No Iterations 3
DILUPBiCGStab:  Solving for Uz, Initial residual = 0.595053, Final residual = 0.00494157, No Iterations 3
Pressure gradient source: uncorrected Ubar = 38.6762, pressure gradient = 7062.01
GAMG:  Solving for p, Initial residual = 0.821266, Final residual = 0.081703, No Iterations 3
time step continuity errors : sum local = 4.85351e-12, global = -1.22844e-14, cumulative = -3.91263e-14
Pressure gradient source: uncorrected Ubar = 38.715, pressure gradient = 1605.51
DILUPBiCGStab:  Solving for omega, Initial residual = 0.00137267, Final residual = 1.23354e-06, No Iterations 1
DILUPBiCGStab:  Solving for k, Initial residual = 0.0395488, Final residual = 0.000336738, No Iterations 1
bounding k, min: 0 max: 0.0201525 average: 0.0149777
ExecutionTime = 0.26 s  ClockTime = 7 s

Time = 5

DILUPBiCGStab:  Solving for Ux, Initial residual = 0.0216535, Final residual = 0.000156341, No Iterations 2
DILUPBiCGStab:  Solving for Uy, Initial residual = 0.49556, Final residual = 0.00339458, No Iterations 3
DILUPBiCGStab:  Solving for Uz, Initial residual = 0.661577, Final residual = 0.0033634, No Iterations 3
Pressure gradient source: uncorrected Ubar = 38.6827, pressure gradient = 5952.31
GAMG:  Solving for p, Initial residual = 0.783996, Final residual = 0.077001, No Iterations 3
time step continuity errors : sum local = 3.61871e-12, global = 9.19431e-14, cumulative = 5.28168e-14
Pressure gradient source: uncorrected Ubar = 38.7158, pressure gradient = 1492.09
DILUPBiCGStab:  Solving for omega, Initial residual = 0.000468457, Final residual = 4.96977e-07, No Iterations 1
DILUPBiCGStab:  Solving for k, Initial residual = 0.0140199, Final residual = 2.64128e-05, No Iterations 1
bounding k, min: 0 max: 0.0203305 average: 0.014273
ExecutionTime = 0.31 s  ClockTime = 7 s

Time = 6

DILUPBiCGStab:  Solving for Ux, Initial residual = 0.0181058, Final residual = 0.000154356, No Iterations 2
DILUPBiCGStab:  Solving for Uy, Initial residual = 0.677059, Final residual = 0.00490758, No Iterations 3
DILUPBiCGStab:  Solving for Uz, Initial residual = 0.695716, Final residual = 0.00342135, No Iterations 3
Pressure gradient source: uncorrected Ubar = 38.6793, pressure gradient = 6217.5
GAMG:  Solving for p, Initial residual = 0.737851, Final residual = 0.0478372, No Iterations 4
time step continuity errors : sum local = 1.66949e-12, global = 5.63612e-14, cumulative = 1.09178e-13
Pressure gradient source: uncorrected Ubar = 38.7151, pressure gradient = 1478.98
DILUPBiCGStab:  Solving for omega, Initial residual = 0.000188172, Final residual = 2.75697e-07, No Iterations 1
DILUPBiCGStab:  Solving for k, Initial residual = 0.00668505, Final residual = 2.52904e-05, No Iterations 1
bounding k, min: 0 max: 0.0206453 average: 0.0137837
ExecutionTime = 0.35 s  ClockTime = 7 s

Time = 7

DILUPBiCGStab:  Solving for Ux, Initial residual = 0.0164398, Final residual = 0.000163063, No Iterations 2
DILUPBiCGStab:  Solving for Uy, Initial residual = 0.591552, Final residual = 0.00427721, No Iterations 3
DILUPBiCGStab:  Solving for Uz, Initial residual = 0.744573, Final residual = 0.00469601, No Iterations 3
Pressure gradient source: uncorrected Ubar = 38.6784, pressure gradient = 6233.83
GAMG:  Solving for p, Initial residual = 0.72157, Final residual = 0.0445758, No Iterations 4
time step continuity errors : sum local = 1.42572e-12, global = 1.56025e-13, cumulative = 2.65203e-13
Pressure gradient source: uncorrected Ubar = 38.715, pressure gradient = 1479.95
DILUPBiCGStab:  Solving for omega, Initial residual = 7.09959e-05, Final residual = 1.63547e-07, No Iterations 1
DILUPBiCGStab:  Solving for k, Initial residual = 0.00411071, Final residual = 2.73816e-05, No Iterations 1
bounding k, min: 0 max: 0.0210954 average: 0.0134385
ExecutionTime = 0.38 s  ClockTime = 7 s

Time = 8

DILUPBiCGStab:  Solving for Ux, Initial residual = 0.014902, Final residual = 0.000103508, No Iterations 2
DILUPBiCGStab:  Solving for Uy, Initial residual = 0.544645, Final residual = 0.00444946, No Iterations 3
DILUPBiCGStab:  Solving for Uz, Initial residual = 0.701198, Final residual = 0.0053924, No Iterations 3
Pressure gradient source: uncorrected Ubar = 38.6932, pressure gradient = 4269.68
GAMG:  Solving for p, Initial residual = 0.730014, Final residual = 0.0491516, No Iterations 4
time step continuity errors : sum local = 1.37094e-12, global = 9.77122e-14, cumulative = 3.62915e-13
Pressure gradient source: uncorrected Ubar = 38.7148, pressure gradient = 1500.44
DILUPBiCGStab:  Solving for omega, Initial residual = 2.89222e-05, Final residual = 1.31198e-07, No Iterations 1
DILUPBiCGStab:  Solving for k, Initial residual = 0.0029157, Final residual = 1.06306e-05, No Iterations 2
bounding k, min: 0 max: 0.021812 average: 0.0132082
ExecutionTime = 0.42 s  ClockTime = 7 s

Time = 9

DILUPBiCGStab:  Solving for Ux, Initial residual = 0.013381, Final residual = 0.00010593, No Iterations 2
DILUPBiCGStab:  Solving for Uy, Initial residual = 0.587041, Final residual = 0.00459976, No Iterations 3
DILUPBiCGStab:  Solving for Uz, Initial residual = 0.556904, Final residual = 0.00315086, No Iterations 3
Pressure gradient source: uncorrected Ubar = 38.6925, pressure gradient = 4332.88
GAMG:  Solving for p, Initial residual = 0.709154, Final residual = 0.0419375, No Iterations 4
time step continuity errors : sum local = 9.87159e-13, global = 1.31581e-13, cumulative = 4.94496e-13
Pressure gradient source: uncorrected Ubar = 38.7148, pressure gradient = 1523.12
DILUPBiCGStab:  Solving for omega, Initial residual = 1.13983e-05, Final residual = 1.05239e-07, No Iterations 1
DILUPBiCGStab:  Solving for k, Initial residual = 0.00223903, Final residual = 1.71127e-05, No Iterations 2
bounding k, min: 0 max: 0.0227672 average: 0.0130695
ExecutionTime = 0.46 s  ClockTime = 7 s

Time = 10

DILUPBiCGStab:  Solving for Ux, Initial residual = 0.0120929, Final residual = 0.000107282, No Iterations 2
DILUPBiCGStab:  Solving for Uy, Initial residual = 0.660065, Final residual = 0.00586409, No Iterations 3
DILUPBiCGStab:  Solving for Uz, Initial residual = 0.527192, Final residual = 0.00357907, No Iterations 3
Pressure gradient source: uncorrected Ubar = 38.6915, pressure gradient = 4445.56
GAMG:  Solving for p, Initial residual = 0.627616, Final residual = 0.0471515, No Iterations 4
time step continuity errors : sum local = 8.78036e-13, global = -1.02231e-13, cumulative = 3.92266e-13
Pressure gradient source: uncorrected Ubar = 38.7148, pressure gradient = 1551.96
DILUPBiCGStab:  Solving for omega, Initial residual = 5.59688e-06, Final residual = 1.17099e-08, No Iterations 1
DILUPBiCGStab:  Solving for k, Initial residual = 0.00184314, Final residual = 3.83981e-06, No Iterations 2
bounding k, min: 0 max: 0.0239911 average: 0.0129976
ExecutionTime = 0.5 s  ClockTime = 7 s

Time = 11

DILUPBiCGStab:  Solving for Ux, Initial residual = 0.0110325, Final residual = 0.000107896, No Iterations 2
DILUPBiCGStab:  Solving for Uy, Initial residual = 0.608015, Final residual = 0.00451788, No Iterations 3
DILUPBiCGStab:  Solving for Uz, Initial residual = 0.542743, Final residual = 0.00464292, No Iterations 3
Pressure gradient source: uncorrected Ubar = 38.6903, pressure gradient = 4609.46
GAMG:  Solving for p, Initial residual = 0.573186, Final residual = 0.0540214, No Iterations 4
time step continuity errors : sum local = 8.55872e-13, global = 4.79119e-14, cumulative = 4.40178e-13
Pressure gradient source: uncorrected Ubar = 38.7147, pressure gradient = 1592.28
DILUPBiCGStab:  Solving for omega, Initial residual = 2.61368e-06, Final residual = 1.0224e-08, No Iterations 1
DILUPBiCGStab:  Solving for k, Initial residual = 0.00161176, Final residual = 4.80932e-06, No Iterations 2
bounding k, min: 0 max: 0.0254479 average: 0.0129809
ExecutionTime = 0.54 s  ClockTime = 7 s

Time = 12

DILUPBiCGStab:  Solving for Ux, Initial residual = 0.0101534, Final residual = 6.27532e-05, No Iterations 3
DILUPBiCGStab:  Solving for Uy, Initial residual = 0.44291, Final residual = 0.00423502, No Iterations 3
DILUPBiCGStab:  Solving for Uz, Initial residual = 0.461106, Final residual = 0.00449732, No Iterations 3
Pressure gradient source: uncorrected Ubar = 38.7023, pressure gradient = 3162.87
GAMG:  Solving for p, Initial residual = 0.557115, Final residual = 0.0416634, No Iterations 4
time step continuity errors : sum local = 6.45065e-13, global = -2.4507e-14, cumulative = 4.15671e-13
Pressure gradient source: uncorrected Ubar = 38.7147, pressure gradient = 1631.93
DILUPBiCGStab:  Solving for omega, Initial residual = 1.87978e-06, Final residual = 9.42994e-09, No Iterations 1
DILUPBiCGStab:  Solving for k, Initial residual = 0.0014764, Final residual = 7.39887e-06, No Iterations 2
bounding k, min: 0 max: 0.0270908 average: 0.0130143
ExecutionTime = 0.58 s  ClockTime = 7 s

Time = 13

DILUPBiCGStab:  Solving for Ux, Initial residual = 0.00940273, Final residual = 6.20514e-05, No Iterations 3
DILUPBiCGStab:  Solving for Uy, Initial residual = 0.519036, Final residual = 0.00257698, No Iterations 4
DILUPBiCGStab:  Solving for Uz, Initial residual = 0.467602, Final residual = 0.00333228, No Iterations 3
Pressure gradient source: uncorrected Ubar = 38.7019, pressure gradient = 3234.45
GAMG:  Solving for p, Initial residual = 0.553309, Final residual = 0.0414318, No Iterations 4
time step continuity errors : sum local = 5.84353e-13, global = -9.22872e-14, cumulative = 3.23383e-13
Pressure gradient source: uncorrected Ubar = 38.7146, pressure gradient = 1675.37
DILUPBiCGStab:  Solving for omega, Initial residual = 1.22651e-06, Final residual = 8.47235e-09, No Iterations 1
DILUPBiCGStab:  Solving for k, Initial residual = 0.00141373, Final residual = 9.09147e-06, No Iterations 2
bounding k, min: 0 max: 0.0291413 average: 0.0130969
ExecutionTime = 0.63 s  ClockTime = 7 s

Time = 14

DILUPBiCGStab:  Solving for Ux, Initial residual = 0.00876715, Final residual = 6.1936e-05, No Iterations 3
DILUPBiCGStab:  Solving for Uy, Initial residual = 0.752099, Final residual = 0.00685885, No Iterations 3
DILUPBiCGStab:  Solving for Uz, Initial residual = 0.359157, Final residual = 0.00183855, No Iterations 4
Pressure gradient source: uncorrected Ubar = 38.7024, pressure gradient = 3208.39
GAMG:  Solving for p, Initial residual = 0.471423, Final residual = 0.0415002, No Iterations 4
time step continuity errors : sum local = 5.5186e-13, global = -1.66806e-13, cumulative = 1.56577e-13
Pressure gradient source: uncorrected Ubar = 38.7147, pressure gradient = 1708.94
DILUPBiCGStab:  Solving for omega, Initial residual = 1.11927e-06, Final residual = 8.11341e-09, No Iterations 1
DILUPBiCGStab:  Solving for k, Initial residual = 0.00139742, Final residual = 1.00155e-05, No Iterations 2
bounding k, min: 0 max: 0.0314407 average: 0.0132272
ExecutionTime = 0.66 s  ClockTime = 7 s

Time = 15

DILUPBiCGStab:  Solving for Ux, Initial residual = 0.00821044, Final residual = 6.0235e-05, No Iterations 3
DILUPBiCGStab:  Solving for Uy, Initial residual = 0.67841, Final residual = 0.00574792, No Iterations 3
DILUPBiCGStab:  Solving for Uz, Initial residual = 0.430241, Final residual = 0.00236499, No Iterations 4
Pressure gradient source: uncorrected Ubar = 38.7011, pressure gradient = 3404.23
GAMG:  Solving for p, Initial residual = 0.466021, Final residual = 0.0295845, No Iterations 5
time step continuity errors : sum local = 4.64015e-13, global = -1.59232e-13, cumulative = -2.65491e-15
Pressure gradient source: uncorrected Ubar = 38.7146, pressure gradient = 1762.9
DILUPBiCGStab:  Solving for omega, Initial residual = 9.0198e-07, Final residual = 7.55187e-09, No Iterations 1
DILUPBiCGStab:  Solving for k, Initial residual = 0.00141636, Final residual = 1.22159e-05, No Iterations 2
bounding k, min: 0 max: 0.0340754 average: 0.0134041
ExecutionTime = 0.71 s  ClockTime = 7 s

Time = 16

DILUPBiCGStab:  Solving for Ux, Initial residual = 0.00773485, Final residual = 6.14066e-05, No Iterations 3
DILUPBiCGStab:  Solving for Uy, Initial residual = 0.649243, Final residual = 0.0035044, No Iterations 4
DILUPBiCGStab:  Solving for Uz, Initial residual = 0.39767, Final residual = 0.00197179, No Iterations 4
Pressure gradient source: uncorrected Ubar = 38.7033, pressure gradient = 3179.87
GAMG:  Solving for p, Initial residual = 0.44416, Final residual = 0.0366745, No Iterations 4
time step continuity errors : sum local = 3.13191e-13, global = -3.00694e-14, cumulative = -3.27243e-14
Pressure gradient source: uncorrected Ubar = 38.7148, pressure gradient = 1782.57
DILUPBiCGStab:  Solving for omega, Initial residual = 8.51261e-07, Final residual = 7.46531e-09, No Iterations 1
DILUPBiCGStab:  Solving for k, Initial residual = 0.00145598, Final residual = 3.78922e-06, No Iterations 3
bounding k, min: 0 max: 0.0371551 average: 0.0136293
ExecutionTime = 0.75 s  ClockTime = 7 s

Time = 17

DILUPBiCGStab:  Solving for Ux, Initial residual = 0.00730363, Final residual = 5.97978e-05, No Iterations 3
DILUPBiCGStab:  Solving for Uy, Initial residual = 0.470611, Final residual = 0.00254431, No Iterations 4
DILUPBiCGStab:  Solving for Uz, Initial residual = 0.341831, Final residual = 0.00193609, No Iterations 4
Pressure gradient source: uncorrected Ubar = 38.7012, pressure gradient = 3453.02
GAMG:  Solving for p, Initial residual = 0.412882, Final residual = 0.0334844, No Iterations 4
time step continuity errors : sum local = 4.08839e-13, global = 1.15822e-13, cumulative = 8.30982e-14
Pressure gradient source: uncorrected Ubar = 38.7146, pressure gradient = 1834.88
DILUPBiCGStab:  Solving for omega, Initial residual = 7.56881e-07, Final residual = 7.24126e-09, No Iterations 1
DILUPBiCGStab:  Solving for k, Initial residual = 0.00151453, Final residual = 4.32189e-06, No Iterations 3
bounding k, min: 0 max: 0.0405148 average: 0.0139012
ExecutionTime = 0.79 s  ClockTime = 7 s

Time = 18

DILUPBiCGStab:  Solving for Ux, Initial residual = 0.00692504, Final residual = 5.95206e-05, No Iterations 3
DILUPBiCGStab:  Solving for Uy, Initial residual = 0.392609, Final residual = 0.00353955, No Iterations 3
DILUPBiCGStab:  Solving for Uz, Initial residual = 0.23914, Final residual = 0.0013369, No Iterations 4
Pressure gradient source: uncorrected Ubar = 38.702, pressure gradient = 3415.81
GAMG:  Solving for p, Initial residual = 0.422121, Final residual = 0.0225315, No Iterations 5
time step continuity errors : sum local = 1.25794e-13, global = -2.60777e-14, cumulative = 5.70204e-14
Pressure gradient source: uncorrected Ubar = 38.7146, pressure gradient = 1878.55
DILUPBiCGStab:  Solving for omega, Initial residual = 6.96019e-07, Final residual = 2.06171e-09, No Iterations 2
DILUPBiCGStab:  Solving for k, Initial residual = 0.00157107, Final residual = 4.86515e-06, No Iterations 3
bounding k, min: 0 max: 0.0441851 average: 0.0142148
ExecutionTime = 0.83 s  ClockTime = 7 s

Time = 19

DILUPBiCGStab:  Solving for Ux, Initial residual = 0.00658595, Final residual = 5.93857e-05, No Iterations 3
DILUPBiCGStab:  Solving for Uy, Initial residual = 0.528366, Final residual = 0.00315688, No Iterations 4
DILUPBiCGStab:  Solving for Uz, Initial residual = 0.424064, Final residual = 0.00248061, No Iterations 4
Pressure gradient source: uncorrected Ubar = 38.7026, pressure gradient = 3377.05
GAMG:  Solving for p, Initial residual = 0.35911, Final residual = 0.0302821, No Iterations 6
time step continuity errors : sum local = 3.09996e-13, global = 6.55981e-15, cumulative = 6.35802e-14
Pressure gradient source: uncorrected Ubar = 38.7147, pressure gradient = 1913.65
DILUPBiCGStab:  Solving for omega, Initial residual = 6.34429e-07, Final residual = 2.10945e-09, No Iterations 2
DILUPBiCGStab:  Solving for k, Initial residual = 0.00163334, Final residual = 5.37266e-06, No Iterations 3
bounding k, min: 0 max: 0.0481508 average: 0.0145693
ExecutionTime = 0.87 s  ClockTime = 7 s

Time = 20

DILUPBiCGStab:  Solving for Ux, Initial residual = 0.0062788, Final residual = 5.94686e-05, No Iterations 3
DILUPBiCGStab:  Solving for Uy, Initial residual = 0.472037, Final residual = 0.00264615, No Iterations 4
DILUPBiCGStab:  Solving for Uz, Initial residual = 0.488895, Final residual = 0.00282706, No Iterations 4
Pressure gradient source: uncorrected Ubar = 38.7032, pressure gradient = 3336.88
GAMG:  Solving for p, Initial residual = 0.333911, Final residual = 0.0218331, No Iterations 6
time step continuity errors : sum local = 1.36481e-13, global = 1.14422e-14, cumulative = 7.50225e-14
Pressure gradient source: uncorrected Ubar = 38.7148, pressure gradient = 1940.9
DILUPBiCGStab:  Solving for omega, Initial residual = 5.83997e-07, Final residual = 2.155e-09, No Iterations 2
DILUPBiCGStab:  Solving for k, Initial residual = 0.0017013, Final residual = 5.91174e-06, No Iterations 3
bounding k, min: 0 max: 0.0522922 average: 0.0149647
ExecutionTime = 0.91 s  ClockTime = 7 s

Time = 21

DILUPBiCGStab:  Solving for Ux, Initial residual = 0.00599544, Final residual = 5.80614e-05, No Iterations 3
DILUPBiCGStab:  Solving for Uy, Initial residual = 0.37937, Final residual = 0.00184982, No Iterations 4
DILUPBiCGStab:  Solving for Uz, Initial residual = 0.212129, Final residual = 0.00131226, No Iterations 4
Pressure gradient source: uncorrected Ubar = 38.7022, pressure gradient = 3490.57
GAMG:  Solving for p, Initial residual = 0.356801, Final residual = 0.0245935, No Iterations 5
time step continuity errors : sum local = 3.22668e-13, global = -1.54643e-13, cumulative = -7.96207e-14
Pressure gradient source: uncorrected Ubar = 38.7146, pressure gradient = 1986.93
DILUPBiCGStab:  Solving for omega, Initial residual = 5.39615e-07, Final residual = 2.19502e-09, No Iterations 2
DILUPBiCGStab:  Solving for k, Initial residual = 0.00177278, Final residual = 6.74805e-06, No Iterations 3
bounding k, min: 0 max: 0.0566746 average: 0.0154012
ExecutionTime = 0.96 s  ClockTime = 8 s

Time = 22

DILUPBiCGStab:  Solving for Ux, Initial residual = 0.00574661, Final residual = 2.97792e-05, No Iterations 3
DILUPBiCGStab:  Solving for Uy, Initial residual = 0.461083, Final residual = 0.00259507, No Iterations 4
DILUPBiCGStab:  Solving for Uz, Initial residual = 0.396491, Final residual = 0.00213626, No Iterations 4
Pressure gradient source: uncorrected Ubar = 38.7076, pressure gradient = 2874.53
GAMG:  Solving for p, Initial residual = 0.352624, Final residual = 0.0229508, No Iterations 5
time step continuity errors : sum local = 3.3191e-13, global = -1.34093e-13, cumulative = -2.13714e-13
Pressure gradient source: uncorrected Ubar = 38.715, pressure gradient = 1985.76
DILUPBiCGStab:  Solving for omega, Initial residual = 5.00502e-07, Final residual = 2.22102e-09, No Iterations 2
DILUPBiCGStab:  Solving for k, Initial residual = 0.00184677, Final residual = 7.82109e-06, No Iterations 3
bounding k, min: 0 max: 0.061551 average: 0.0158789
ExecutionTime = 1 s  ClockTime = 8 s

Time = 23

DILUPBiCGStab:  Solving for Ux, Initial residual = 0.00550774, Final residual = 2.90036e-05, No Iterations 3
DILUPBiCGStab:  Solving for Uy, Initial residual = 0.477388, Final residual = 0.00271177, No Iterations 4
DILUPBiCGStab:  Solving for Uz, Initial residual = 0.333475, Final residual = 0.0023551, No Iterations 4
Pressure gradient source: uncorrected Ubar = 38.7045, pressure gradient = 3254.04
GAMG:  Solving for p, Initial residual = 0.316815, Final residual = 0.0245211, No Iterations 4
time step continuity errors : sum local = 2.10343e-13, global = -6.17961e-14, cumulative = -2.7551e-13
Pressure gradient source: uncorrected Ubar = 38.7146, pressure gradient = 2032.85
DILUPBiCGStab:  Solving for omega, Initial residual = 4.65782e-07, Final residual = 2.23904e-09, No Iterations 2
DILUPBiCGStab:  Solving for k, Initial residual = 0.00192609, Final residual = 8.72179e-06, No Iterations 3
bounding k, min: 0 max: 0.0667084 average: 0.0164003
ExecutionTime = 1.04 s  ClockTime = 8 s

Time = 24

DILUPBiCGStab:  Solving for Ux, Initial residual = 0.00528983, Final residual = 2.82061e-05, No Iterations 3
DILUPBiCGStab:  Solving for Uy, Initial residual = 0.35196, Final residual = 0.00187333, No Iterations 4
DILUPBiCGStab:  Solving for Uz, Initial residual = 0.338408, Final residual = 0.00252155, No Iterations 4
Pressure gradient source: uncorrected Ubar = 38.7045, pressure gradient = 3301.44
GAMG:  Solving for p, Initial residual = 0.311631, Final residual = 0.0230329, No Iterations 4
time step continuity errors : sum local = 2.49136e-13, global = 1.0638e-13, cumulative = -1.6913e-13
Pressure gradient source: uncorrected Ubar = 38.7146, pressure gradient = 2086.91
DILUPBiCGStab:  Solving for omega, Initial residual = 4.3447e-07, Final residual = 2.25789e-09, No Iterations 2
DILUPBiCGStab:  Solving for k, Initial residual = 0.00201019, Final residual = 9.34123e-06, No Iterations 3
bounding k, min: 0 max: 0.072197 average: 0.0169672
ExecutionTime = 1.08 s  ClockTime = 8 s

Time = 25

DILUPBiCGStab:  Solving for Ux, Initial residual = 0.00509828, Final residual = 2.94085e-05, No Iterations 3
DILUPBiCGStab:  Solving for Uy, Initial residual = 0.421261, Final residual = 0.00235082, No Iterations 4
DILUPBiCGStab:  Solving for Uz, Initial residual = 0.221728, Final residual = 0.0014953, No Iterations 4
Pressure gradient source: uncorrected Ubar = 38.7087, pressure gradient = 2845.53
GAMG:  Solving for p, Initial residual = 0.357885, Final residual = 0.0196356, No Iterations 5
time step continuity errors : sum local = 1.65594e-13, global = 7.42206e-14, cumulative = -9.49097e-14
Pressure gradient source: uncorrected Ubar = 38.7151, pressure gradient = 2080.39
DILUPBiCGStab:  Solving for omega, Initial residual = 4.05833e-07, Final residual = 2.27308e-09, No Iterations 2
DILUPBiCGStab:  Solving for k, Initial residual = 0.00209588, Final residual = 9.99173e-06, No Iterations 3
bounding k, min: 0 max: 0.0780689 average: 0.0175825
ExecutionTime = 1.13 s  ClockTime = 8 s

Time = 26

DILUPBiCGStab:  Solving for Ux, Initial residual = 0.00491162, Final residual = 2.96061e-05, No Iterations 3
DILUPBiCGStab:  Solving for Uy, Initial residual = 0.404406, Final residual = 0.00271573, No Iterations 4
DILUPBiCGStab:  Solving for Uz, Initial residual = 0.260754, Final residual = 0.00195796, No Iterations 4
Pressure gradient source: uncorrected Ubar = 38.7074, pressure gradient = 2986.74
GAMG:  Solving for p, Initial residual = 0.320065, Final residual = 0.0286613, No Iterations 4
time step continuity errors : sum local = 2.01097e-13, global = -6.64804e-15, cumulative = -1.01558e-13
Pressure gradient source: uncorrected Ubar = 38.7149, pressure gradient = 2091.52
DILUPBiCGStab:  Solving for omega, Initial residual = 3.80757e-07, Final residual = 2.27622e-09, No Iterations 2
DILUPBiCGStab:  Solving for k, Initial residual = 0.0021904, Final residual = 1.07661e-05, No Iterations 3
bounding k, min: 0 max: 0.084449 average: 0.018251
ExecutionTime = 1.16 s  ClockTime = 8 s

Time = 27

DILUPBiCGStab:  Solving for Ux, Initial residual = 0.00473531, Final residual = 2.89058e-05, No Iterations 3
DILUPBiCGStab:  Solving for Uy, Initial residual = 0.379231, Final residual = 0.00216776, No Iterations 4
DILUPBiCGStab:  Solving for Uz, Initial residual = 0.274543, Final residual = 0.00142224, No Iterations 4
Pressure gradient source: uncorrected Ubar = 38.7061, pressure gradient = 3156.46
GAMG:  Solving for p, Initial residual = 0.31557, Final residual = 0.0127884, No Iterations 5
time step continuity errors : sum local = 7.52199e-14, global = -1.57468e-14, cumulative = -1.17305e-13
Pressure gradient source: uncorrected Ubar = 38.7147, pressure gradient = 2124.85
DILUPBiCGStab:  Solving for omega, Initial residual = 3.57595e-07, Final residual = 2.27014e-09, No Iterations 2
DILUPBiCGStab:  Solving for k, Initial residual = 0.00229961, Final residual = 1.14075e-05, No Iterations 3
bounding k, min: 0 max: 0.0916974 average: 0.018979
ExecutionTime = 1.21 s  ClockTime = 8 s

Time = 28

DILUPBiCGStab:  Solving for Ux, Initial residual = 0.00457313, Final residual = 2.8544e-05, No Iterations 3
DILUPBiCGStab:  Solving for Uy, Initial residual = 0.413172, Final residual = 0.00229768, No Iterations 4
DILUPBiCGStab:  Solving for Uz, Initial residual = 0.347689, Final residual = 0.00190472, No Iterations 4
Pressure gradient source: uncorrected Ubar = 38.7069, pressure gradient = 3097.38
GAMG:  Solving for p, Initial residual = 0.329472, Final residual = 0.0148812, No Iterations 5
time step continuity errors : sum local = 1.96869e-13, global = -1.16513e-13, cumulative = -2.33817e-13
Pressure gradient source: uncorrected Ubar = 38.7148, pressure gradient = 2150.8
DILUPBiCGStab:  Solving for omega, Initial residual = 3.36637e-07, Final residual = 2.2608e-09, No Iterations 2
DILUPBiCGStab:  Solving for k, Initial residual = 0.00242972, Final residual = 1.20326e-05, No Iterations 3
bounding k, min: 0 max: 0.100057 average: 0.0197764
ExecutionTime = 1.25 s  ClockTime = 8 s

Time = 29

DILUPBiCGStab:  Solving for Ux, Initial residual = 0.00442252, Final residual = 2.84145e-05, No Iterations 3
DILUPBiCGStab:  Solving for Uy, Initial residual = 0.390676, Final residual = 0.0024598, No Iterations 4
DILUPBiCGStab:  Solving for Uz, Initial residual = 0.283375, Final residual = 0.00221241, No Iterations 4
Pressure gradient source: uncorrected Ubar = 38.7078, pressure gradient = 3016.06
GAMG:  Solving for p, Initial residual = 0.305335, Final residual = 0.0243134, No Iterations 4
time step continuity errors : sum local = 1.8363e-13, global = 1.79639e-14, cumulative = -2.15853e-13
Pressure gradient source: uncorrected Ubar = 38.7149, pressure gradient = 2166.59
DILUPBiCGStab:  Solving for omega, Initial residual = 3.17741e-07, Final residual = 2.24671e-09, No Iterations 2
DILUPBiCGStab:  Solving for k, Initial residual = 0.00259183, Final residual = 1.27948e-05, No Iterations 3
bounding k, min: 0 max: 0.109976 average: 0.0206581
ExecutionTime = 1.29 s  ClockTime = 8 s

Time = 30

DILUPBiCGStab:  Solving for Ux, Initial residual = 0.00428114, Final residual = 2.86281e-05, No Iterations 3
DILUPBiCGStab:  Solving for Uy, Initial residual = 0.436952, Final residual = 0.00274919, No Iterations 4
DILUPBiCGStab:  Solving for Uz, Initial residual = 0.49002, Final residual = 0.00359814, No Iterations 4
Pressure gradient source: uncorrected Ubar = 38.7086, pressure gradient = 2929.71
GAMG:  Solving for p, Initial residual = 0.28172, Final residual = 0.023586, No Iterations 5
time step continuity errors : sum local = 1.45752e-13, global = -3.81488e-15, cumulative = -2.19668e-13
Pressure gradient source: uncorrected Ubar = 38.715, pressure gradient = 2171.62
DILUPBiCGStab:  Solving for omega, Initial residual = 3.00154e-07, Final residual = 2.21053e-09, No Iterations 2
DILUPBiCGStab:  Solving for k, Initial residual = 0.00280009, Final residual = 1.38346e-05, No Iterations 3
bounding k, min: 0 max: 0.122192 average: 0.0216462
ExecutionTime = 1.33 s  ClockTime = 8 s

Time = 31

DILUPBiCGStab:  Solving for Ux, Initial residual = 0.00414636, Final residual = 2.86802e-05, No Iterations 3
DILUPBiCGStab:  Solving for Uy, Initial residual = 0.465299, Final residual = 0.00251922, No Iterations 4
DILUPBiCGStab:  Solving for Uz, Initial residual = 0.276757, Final residual = 0.0024265, No Iterations 4
Pressure gradient source: uncorrected Ubar = 38.7085, pressure gradient = 2943.4
GAMG:  Solving for p, Initial residual = 0.291444, Final residual = 0.0181226, No Iterations 4
time step continuity errors : sum local = 1.22725e-13, global = 2.76139e-14, cumulative = -1.92054e-13
Pressure gradient source: uncorrected Ubar = 38.7149, pressure gradient = 2178.74
DILUPBiCGStab:  Solving for omega, Initial residual = 2.84098e-07, Final residual = 2.14447e-09, No Iterations 2
DILUPBiCGStab:  Solving for k, Initial residual = 0.00307223, Final residual = 1.50858e-05, No Iterations 3
bounding k, min: 0 max: 0.137716 average: 0.0227724
ExecutionTime = 1.38 s  ClockTime = 8 s

Time = 32

DILUPBiCGStab:  Solving for Ux, Initial residual = 0.00401853, Final residual = 2.8592e-05, No Iterations 3
DILUPBiCGStab:  Solving for Uy, Initial residual = 0.388901, Final residual = 0.0022812, No Iterations 4
DILUPBiCGStab:  Solving for Uz, Initial residual = 0.2858, Final residual = 0.00212365, No Iterations 4
Pressure gradient source: uncorrected Ubar = 38.7085, pressure gradient = 2955.64
GAMG:  Solving for p, Initial residual = 0.282154, Final residual = 0.0228994, No Iterations 4
time step continuity errors : sum local = 1.2501e-13, global = -2.9919e-14, cumulative = -2.21973e-13
Pressure gradient source: uncorrected Ubar = 38.7149, pressure gradient = 2187.82
DILUPBiCGStab:  Solving for omega, Initial residual = 2.69238e-07, Final residual = 2.05564e-09, No Iterations 2
DILUPBiCGStab:  Solving for k, Initial residual = 0.00342444, Final residual = 1.6446e-05, No Iterations 3
bounding k, min: 0 max: 0.157852 average: 0.0240797
ExecutionTime = 1.42 s  ClockTime = 8 s

Time = 33

DILUPBiCGStab:  Solving for Ux, Initial residual = 0.0038979, Final residual = 2.85418e-05, No Iterations 3
DILUPBiCGStab:  Solving for Uy, Initial residual = 0.329382, Final residual = 0.00246089, No Iterations 4
DILUPBiCGStab:  Solving for Uz, Initial residual = 0.341213, Final residual = 0.00309671, No Iterations 4
Pressure gradient source: uncorrected Ubar = 38.7086, pressure gradient = 2939.95
GAMG:  Solving for p, Initial residual = 0.254101, Final residual = 0.0227966, No Iterations 4
time step continuity errors : sum local = 1.37654e-13, global = -3.37974e-14, cumulative = -2.55771e-13
Pressure gradient source: uncorrected Ubar = 38.7149, pressure gradient = 2195.34
DILUPBiCGStab:  Solving for omega, Initial residual = 2.55326e-07, Final residual = 1.96028e-09, No Iterations 2
DILUPBiCGStab:  Solving for k, Initial residual = 0.00385978, Final residual = 1.78548e-05, No Iterations 3
bounding k, min: 0 max: 0.183125 average: 0.0256222
ExecutionTime = 1.47 s  ClockTime = 8 s

Time = 34

DILUPBiCGStab:  Solving for Ux, Initial residual = 0.00378279, Final residual = 2.84307e-05, No Iterations 3
DILUPBiCGStab:  Solving for Uy, Initial residual = 0.432588, Final residual = 0.00340968, No Iterations 4
DILUPBiCGStab:  Solving for Uz, Initial residual = 0.370271, Final residual = 0.00261654, No Iterations 4
Pressure gradient source: uncorrected Ubar = 38.7087, pressure gradient = 2943.48
GAMG:  Solving for p, Initial residual = 0.253909, Final residual = 0.0171499, No Iterations 4
time step continuity errors : sum local = 1.80579e-13, global = -1.1319e-13, cumulative = -3.68961e-13
Pressure gradient source: uncorrected Ubar = 38.7149, pressure gradient = 2203.76
DILUPBiCGStab:  Solving for omega, Initial residual = 2.42691e-07, Final residual = 1.88078e-09, No Iterations 2
DILUPBiCGStab:  Solving for k, Initial residual = 0.00432536, Final residual = 1.92959e-05, No Iterations 3
bounding k, min: 0 max: 0.213506 average: 0.0274485
ExecutionTime = 1.5 s  ClockTime = 8 s

Time = 35

DILUPBiCGStab:  Solving for Ux, Initial residual = 0.0036725, Final residual = 2.81757e-05, No Iterations 3
DILUPBiCGStab:  Solving for Uy, Initial residual = 0.342609, Final residual = 0.0021807, No Iterations 4
DILUPBiCGStab:  Solving for Uz, Initial residual = 0.251372, Final residual = 0.00196013, No Iterations 4
Pressure gradient source: uncorrected Ubar = 38.7086, pressure gradient = 2958.34
GAMG:  Solving for p, Initial residual = 0.28525, Final residual = 0.0243224, No Iterations 4
time step continuity errors : sum local = 1.65792e-13, global = -2.57177e-14, cumulative = -3.94678e-13
Pressure gradient source: uncorrected Ubar = 38.7149, pressure gradient = 2214.66
DILUPBiCGStab:  Solving for omega, Initial residual = 2.30999e-07, Final residual = 1.84197e-09, No Iterations 2
DILUPBiCGStab:  Solving for k, Initial residual = 0.00482622, Final residual = 2.083e-05, No Iterations 3
bounding k, min: 0 max: 0.250224 average: 0.029617
ExecutionTime = 1.55 s  ClockTime = 8 s

Time = 36

DILUPBiCGStab:  Solving for Ux, Initial residual = 0.00356695, Final residual = 2.78128e-05, No Iterations 3
DILUPBiCGStab:  Solving for Uy, Initial residual = 0.336177, Final residual = 0.00281376, No Iterations 4
DILUPBiCGStab:  Solving for Uz, Initial residual = 0.216013, Final residual = 0.00155479, No Iterations 4
Pressure gradient source: uncorrected Ubar = 38.7086, pressure gradient = 2965.75
GAMG:  Solving for p, Initial residual = 0.289267, Final residual = 0.0170102, No Iterations 4
time step continuity errors : sum local = 8.89164e-14, global = 2.46871e-14, cumulative = -3.69991e-13
Pressure gradient source: uncorrected Ubar = 38.7149, pressure gradient = 2227.17
DILUPBiCGStab:  Solving for omega, Initial residual = 2.19963e-07, Final residual = 1.81466e-09, No Iterations 2
DILUPBiCGStab:  Solving for k, Initial residual = 0.0053598, Final residual = 2.24035e-05, No Iterations 3
bounding k, min: 0 max: 0.294662 average: 0.0321984
ExecutionTime = 1.59 s  ClockTime = 8 s

Time = 37

DILUPBiCGStab:  Solving for Ux, Initial residual = 0.00346549, Final residual = 2.73489e-05, No Iterations 3
DILUPBiCGStab:  Solving for Uy, Initial residual = 0.386357, Final residual = 0.00319393, No Iterations 4
DILUPBiCGStab:  Solving for Uz, Initial residual = 0.241199, Final residual = 0.00214766, No Iterations 4
Pressure gradient source: uncorrected Ubar = 38.7087, pressure gradient = 2972.79
GAMG:  Solving for p, Initial residual = 0.276735, Final residual = 0.0200544, No Iterations 4
time step continuity errors : sum local = 1.00676e-13, global = -1.42309e-15, cumulative = -3.71414e-13
Pressure gradient source: uncorrected Ubar = 38.7149, pressure gradient = 2241.32
DILUPBiCGStab:  Solving for omega, Initial residual = 2.09983e-07, Final residual = 1.79026e-09, No Iterations 2
DILUPBiCGStab:  Solving for k, Initial residual = 0.00593304, Final residual = 2.40267e-05, No Iterations 3
bounding k, min: 0 max: 0.348491 average: 0.0352819
ExecutionTime = 1.63 s  ClockTime = 8 s

Time = 38

DILUPBiCGStab:  Solving for Ux, Initial residual = 0.00336725, Final residual = 2.677e-05, No Iterations 3
DILUPBiCGStab:  Solving for Uy, Initial residual = 0.350918, Final residual = 0.00287643, No Iterations 4
DILUPBiCGStab:  Solving for Uz, Initial residual = 0.261599, Final residual = 0.00167074, No Iterations 4
Pressure gradient source: uncorrected Ubar = 38.7088, pressure gradient = 2981.03
GAMG:  Solving for p, Initial residual = 0.26905, Final residual = 0.0239668, No Iterations 4
time step continuity errors : sum local = 8.08715e-14, global = 1.78025e-14, cumulative = -3.53612e-13
Pressure gradient source: uncorrected Ubar = 38.7149, pressure gradient = 2257.31
DILUPBiCGStab:  Solving for omega, Initial residual = 2.00645e-07, Final residual = 1.77699e-09, No Iterations 2
DILUPBiCGStab:  Solving for k, Initial residual = 0.00653549, Final residual = 6.40323e-05, No Iterations 2
bounding k, min: 0 max: 0.413673 average: 0.0389553
ExecutionTime = 1.67 s  ClockTime = 8 s

Time = 39

DILUPBiCGStab:  Solving for Ux, Initial residual = 0.0032723, Final residual = 2.61019e-05, No Iterations 3
DILUPBiCGStab:  Solving for Uy, Initial residual = 0.362778, Final residual = 0.0033815, No Iterations 4
DILUPBiCGStab:  Solving for Uz, Initial residual = 0.368088, Final residual = 0.0030053, No Iterations 4
Pressure gradient source: uncorrected Ubar = 38.7089, pressure gradient = 2986.07
GAMG:  Solving for p, Initial residual = 0.290722, Final residual = 0.0169685, No Iterations 5
time step continuity errors : sum local = 2.11753e-13, global = 9.35315e-14, cumulative = -2.6008e-13
Pressure gradient source: uncorrected Ubar = 38.7149, pressure gradient = 2274.74
DILUPBiCGStab:  Solving for omega, Initial residual = 1.91804e-07, Final residual = 1.77415e-09, No Iterations 2
DILUPBiCGStab:  Solving for k, Initial residual = 0.00713953, Final residual = 6.67568e-05, No Iterations 2
bounding k, min: 0 max: 0.492202 average: 0.0433491
ExecutionTime = 1.72 s  ClockTime = 8 s

Time = 40

DILUPBiCGStab:  Solving for Ux, Initial residual = 0.00318016, Final residual = 2.53521e-05, No Iterations 3
DILUPBiCGStab:  Solving for Uy, Initial residual = 0.441011, Final residual = 0.00304702, No Iterations 4
DILUPBiCGStab:  Solving for Uz, Initial residual = 0.35018, Final residual = 0.00279615, No Iterations 4
Pressure gradient source: uncorrected Ubar = 38.709, pressure gradient = 2995.4
GAMG:  Solving for p, Initial residual = 0.29873, Final residual = 0.0225839, No Iterations 4
time step continuity errors : sum local = 3.82535e-13, global = 2.6083e-13, cumulative = 7.49794e-16
Pressure gradient source: uncorrected Ubar = 38.7148, pressure gradient = 2294.11
DILUPBiCGStab:  Solving for omega, Initial residual = 1.8375e-07, Final residual = 1.77983e-09, No Iterations 2
DILUPBiCGStab:  Solving for k, Initial residual = 0.00773048, Final residual = 6.92618e-05, No Iterations 2
bounding k, min: 0 max: 0.586237 average: 0.0485958
ExecutionTime = 1.77 s  ClockTime = 8 s

Time = 41

DILUPBiCGStab:  Solving for Ux, Initial residual = 0.00309066, Final residual = 2.45104e-05, No Iterations 3
DILUPBiCGStab:  Solving for Uy, Initial residual = 0.346533, Final residual = 0.00317402, No Iterations 4
DILUPBiCGStab:  Solving for Uz, Initial residual = 0.141315, Final residual = 0.00140724, No Iterations 4
Pressure gradient source: uncorrected Ubar = 38.7091, pressure gradient = 3007.37
GAMG:  Solving for p, Initial residual = 0.333263, Final residual = 0.0207705, No Iterations 4
time step continuity errors : sum local = 3.62573e-13, global = 2.48862e-13, cumulative = 2.49612e-13
Pressure gradient source: uncorrected Ubar = 38.7148, pressure gradient = 2315.69
DILUPBiCGStab:  Solving for omega, Initial residual = 1.76113e-07, Final residual = 7.12202e-10, No Iterations 2
DILUPBiCGStab:  Solving for k, Initial residual = 0.00827917, Final residual = 7.14252e-05, No Iterations 2
bounding k, min: 0 max: 0.697904 average: 0.0548336
ExecutionTime = 1.8 s  ClockTime = 8 s

Time = 42

DILUPBiCGStab:  Solving for Ux, Initial residual = 0.0030038, Final residual = 2.36132e-05, No Iterations 3
DILUPBiCGStab:  Solving for Uy, Initial residual = 0.345425, Final residual = 0.00296372, No Iterations 4
DILUPBiCGStab:  Solving for Uz, Initial residual = 0.180725, Final residual = 0.00147386, No Iterations 4
Pressure gradient source: uncorrected Ubar = 38.7092, pressure gradient = 3020.78
GAMG:  Solving for p, Initial residual = 0.305434, Final residual = 0.0243795, No Iterations 4
time step continuity errors : sum local = 2.91035e-13, global = 1.57424e-13, cumulative = 4.07036e-13
Pressure gradient source: uncorrected Ubar = 38.7148, pressure gradient = 2339.54
DILUPBiCGStab:  Solving for omega, Initial residual = 1.68837e-07, Final residual = 7.06165e-10, No Iterations 2
DILUPBiCGStab:  Solving for k, Initial residual = 0.00877417, Final residual = 7.33399e-05, No Iterations 2
bounding k, min: 0 max: 0.829243 average: 0.0622173
ExecutionTime = 1.84 s  ClockTime = 8 s

Time = 43

DILUPBiCGStab:  Solving for Ux, Initial residual = 0.00291886, Final residual = 2.26414e-05, No Iterations 3
DILUPBiCGStab:  Solving for Uy, Initial residual = 0.297347, Final residual = 0.00256457, No Iterations 4
DILUPBiCGStab:  Solving for Uz, Initial residual = 0.199099, Final residual = 0.00159954, No Iterations 4
Pressure gradient source: uncorrected Ubar = 38.7093, pressure gradient = 3042.51
GAMG:  Solving for p, Initial residual = 0.295597, Final residual = 0.0246837, No Iterations 4
time step continuity errors : sum local = 2.28722e-13, global = 7.48912e-14, cumulative = 4.81927e-13
Pressure gradient source: uncorrected Ubar = 38.7148, pressure gradient = 2366.52
DILUPBiCGStab:  Solving for omega, Initial residual = 1.61933e-07, Final residual = 6.98418e-10, No Iterations 2
DILUPBiCGStab:  Solving for k, Initial residual = 0.00923203, Final residual = 7.5172e-05, No Iterations 2
bounding k, min: 0 max: 0.982315 average: 0.0709338
ExecutionTime = 1.89 s  ClockTime = 8 s

Time = 44

DILUPBiCGStab:  Solving for Ux, Initial residual = 0.00283513, Final residual = 2.15981e-05, No Iterations 3
DILUPBiCGStab:  Solving for Uy, Initial residual = 0.429039, Final residual = 0.00294262, No Iterations 4
DILUPBiCGStab:  Solving for Uz, Initial residual = 0.270748, Final residual = 0.0022387, No Iterations 4
Pressure gradient source: uncorrected Ubar = 38.7094, pressure gradient = 3067.34
GAMG:  Solving for p, Initial residual = 0.317402, Final residual = 0.0238812, No Iterations 4
time step continuity errors : sum local = 2.72435e-13, global = 1.43116e-13, cumulative = 6.25042e-13
Pressure gradient source: uncorrected Ubar = 38.7148, pressure gradient = 2396.8
DILUPBiCGStab:  Solving for omega, Initial residual = 1.55399e-07, Final residual = 6.8934e-10, No Iterations 2
DILUPBiCGStab:  Solving for k, Initial residual = 0.00962445, Final residual = 7.64594e-05, No Iterations 2
bounding k, min: 0 max: 1.15878 average: 0.081171
ExecutionTime = 1.93 s  ClockTime = 8 s

Time = 45

DILUPBiCGStab:  Solving for Ux, Initial residual = 0.00275287, Final residual = 2.0486e-05, No Iterations 3
DILUPBiCGStab:  Solving for Uy, Initial residual = 0.399421, Final residual = 0.00387026, No Iterations 4
DILUPBiCGStab:  Solving for Uz, Initial residual = 0.239325, Final residual = 0.0021515, No Iterations 4
Pressure gradient source: uncorrected Ubar = 38.7094, pressure gradient = 3104.61
GAMG:  Solving for p, Initial residual = 0.292831, Final residual = 0.0237246, No Iterations 4
time step continuity errors : sum local = 1.9718e-13, global = -6.81681e-15, cumulative = 6.18226e-13
Pressure gradient source: uncorrected Ubar = 38.7147, pressure gradient = 2431.58
DILUPBiCGStab:  Solving for omega, Initial residual = 1.49159e-07, Final residual = 6.78575e-10, No Iterations 2
DILUPBiCGStab:  Solving for k, Initial residual = 0.00995564, Final residual = 7.74688e-05, No Iterations 2
bounding k, min: 0 max: 1.35972 average: 0.0931317
ExecutionTime = 1.97 s  ClockTime = 9 s

Time = 46

DILUPBiCGStab:  Solving for Ux, Initial residual = 0.00267097, Final residual = 1.93902e-05, No Iterations 3
DILUPBiCGStab:  Solving for Uy, Initial residual = 0.378265, Final residual = 0.00300446, No Iterations 4
DILUPBiCGStab:  Solving for Uz, Initial residual = 0.270011, Final residual = 0.00216009, No Iterations 4
Pressure gradient source: uncorrected Ubar = 38.7094, pressure gradient = 3148.45
GAMG:  Solving for p, Initial residual = 0.300918, Final residual = 0.0197064, No Iterations 5
time step continuity errors : sum local = 1.38894e-13, global = 5.71881e-14, cumulative = 6.75414e-13
Pressure gradient source: uncorrected Ubar = 38.7147, pressure gradient = 2471.21
DILUPBiCGStab:  Solving for omega, Initial residual = 1.43338e-07, Final residual = 6.67261e-10, No Iterations 2
DILUPBiCGStab:  Solving for k, Initial residual = 0.0102047, Final residual = 7.76348e-05, No Iterations 2
bounding k, min: 0 max: 1.58546 average: 0.107008
ExecutionTime = 2.01 s  ClockTime = 9 s

Time = 47

DILUPBiCGStab:  Solving for Ux, Initial residual = 0.00259024, Final residual = 1.83349e-05, No Iterations 3
DILUPBiCGStab:  Solving for Uy, Initial residual = 0.414429, Final residual = 0.00288474, No Iterations 4
DILUPBiCGStab:  Solving for Uz, Initial residual = 0.378592, Final residual = 0.00272834, No Iterations 4
Pressure gradient source: uncorrected Ubar = 38.7095, pressure gradient = 3191.05
GAMG:  Solving for p, Initial residual = 0.279754, Final residual = 0.0269524, No Iterations 4
time step continuity errors : sum local = 2.4365e-13, global = 7.21503e-14, cumulative = 7.47564e-13
Pressure gradient source: uncorrected Ubar = 38.7147, pressure gradient = 2514.97
DILUPBiCGStab:  Solving for omega, Initial residual = 1.37775e-07, Final residual = 6.56124e-10, No Iterations 2
DILUPBiCGStab:  Solving for k, Initial residual = 0.010379, Final residual = 7.73848e-05, No Iterations 2
bounding k, min: 0 max: 1.83558 average: 0.122988
ExecutionTime = 2.05 s  ClockTime = 9 s

Time = 48

DILUPBiCGStab:  Solving for Ux, Initial residual = 0.00250976, Final residual = 1.73232e-05, No Iterations 3
DILUPBiCGStab:  Solving for Uy, Initial residual = 0.353515, Final residual = 0.00232266, No Iterations 4
DILUPBiCGStab:  Solving for Uz, Initial residual = 0.200127, Final residual = 0.00155877, No Iterations 4
Pressure gradient source: uncorrected Ubar = 38.7095, pressure gradient = 3240.77
GAMG:  Solving for p, Initial residual = 0.277287, Final residual = 0.0242753, No Iterations 4
time step continuity errors : sum local = 1.31445e-13, global = 2.60126e-14, cumulative = 7.73577e-13
Pressure gradient source: uncorrected Ubar = 38.7146, pressure gradient = 2563
DILUPBiCGStab:  Solving for omega, Initial residual = 1.32511e-07, Final residual = 6.44604e-10, No Iterations 2
DILUPBiCGStab:  Solving for k, Initial residual = 0.0104772, Final residual = 7.66235e-05, No Iterations 2
bounding k, min: 0 max: 2.10889 average: 0.141244
ExecutionTime = 2.1 s  ClockTime = 9 s

Time = 49

DILUPBiCGStab:  Solving for Ux, Initial residual = 0.00242951, Final residual = 1.62805e-05, No Iterations 3
DILUPBiCGStab:  Solving for Uy, Initial residual = 0.458377, Final residual = 0.00312643, No Iterations 4
DILUPBiCGStab:  Solving for Uz, Initial residual = 0.374252, Final residual = 0.00224742, No Iterations 4
Pressure gradient source: uncorrected Ubar = 38.7095, pressure gradient = 3306.3
GAMG:  Solving for p, Initial residual = 0.282295, Final residual = 0.0136963, No Iterations 5
time step continuity errors : sum local = 9.54719e-14, global = 5.67875e-14, cumulative = 8.30364e-13
Pressure gradient source: uncorrected Ubar = 38.7146, pressure gradient = 2616.33
DILUPBiCGStab:  Solving for omega, Initial residual = 1.27672e-07, Final residual = 6.32916e-10, No Iterations 2
DILUPBiCGStab:  Solving for k, Initial residual = 0.0105033, Final residual = 7.55594e-05, No Iterations 2
bounding k, min: 0 max: 2.40352 average: 0.161925
ExecutionTime = 2.13 s  ClockTime = 9 s

Time = 50

DILUPBiCGStab:  Solving for Ux, Initial residual = 0.00234984, Final residual = 2.2533e-05, No Iterations 3
DILUPBiCGStab:  Solving for Uy, Initial residual = 0.369346, Final residual = 0.002331, No Iterations 4
DILUPBiCGStab:  Solving for Uz, Initial residual = 0.509282, Final residual = 0.00293873, No Iterations 4
Pressure gradient source: uncorrected Ubar = 38.7074, pressure gradient = 3669.06
GAMG:  Solving for p, Initial residual = 0.294559, Final residual = 0.0220807, No Iterations 4
time step continuity errors : sum local = 2.91439e-13, global = 1.39522e-13, cumulative = 9.69886e-13
Pressure gradient source: uncorrected Ubar = 38.7145, pressure gradient = 2678.69
DILUPBiCGStab:  Solving for omega, Initial residual = 1.23211e-07, Final residual = 6.21649e-10, No Iterations 2
DILUPBiCGStab:  Solving for k, Initial residual = 0.0104749, Final residual = 7.43136e-05, No Iterations 2
bounding k, min: 0 max: 2.71726 average: 0.185176
ExecutionTime = 2.18 s  ClockTime = 9 s

Time = 51

DILUPBiCGStab:  Solving for Ux, Initial residual = 0.00227019, Final residual = 2.07939e-05, No Iterations 3
DILUPBiCGStab:  Solving for Uy, Initial residual = 0.361651, Final residual = 0.00221366, No Iterations 4
DILUPBiCGStab:  Solving for Uz, Initial residual = 0.31192, Final residual = 0.00188286, No Iterations 4
Pressure gradient source: uncorrected Ubar = 38.7079, pressure gradient = 3683.88
GAMG:  Solving for p, Initial residual = 0.286979, Final residual = 0.0278179, No Iterations 4
time step continuity errors : sum local = 3.28281e-13, global = 1.74091e-13, cumulative = 1.14398e-12
Pressure gradient source: uncorrected Ubar = 38.7146, pressure gradient = 2739.99
DILUPBiCGStab:  Solving for omega, Initial residual = 1.18941e-07, Final residual = 6.10998e-10, No Iterations 2
DILUPBiCGStab:  Solving for k, Initial residual = 0.0103822, Final residual = 7.26353e-05, No Iterations 2
bounding k, min: 0 max: 3.04722 average: 0.211083
ExecutionTime = 2.22 s  ClockTime = 9 s

Time = 52

DILUPBiCGStab:  Solving for Ux, Initial residual = 0.00219624, Final residual = 1.91259e-05, No Iterations 3
DILUPBiCGStab:  Solving for Uy, Initial residual = 0.339252, Final residual = 0.00177368, No Iterations 4
DILUPBiCGStab:  Solving for Uz, Initial residual = 0.234803, Final residual = 0.00128087, No Iterations 4
Pressure gradient source: uncorrected Ubar = 38.7081, pressure gradient = 3734.97
GAMG:  Solving for p, Initial residual = 0.297165, Final residual = 0.0189797, No Iterations 4
time step continuity errors : sum local = 2.28828e-13, global = 1.06312e-13, cumulative = 1.25029e-12
Pressure gradient source: uncorrected Ubar = 38.7146, pressure gradient = 2804.16
DILUPBiCGStab:  Solving for omega, Initial residual = 1.15008e-07, Final residual = 6.01223e-10, No Iterations 2
DILUPBiCGStab:  Solving for k, Initial residual = 0.0102148, Final residual = 7.07452e-05, No Iterations 2
bounding k, min: 0 max: 3.38618 average: 0.239656
ExecutionTime = 2.27 s  ClockTime = 9 s

Time = 53

DILUPBiCGStab:  Solving for Ux, Initial residual = 0.00212642, Final residual = 1.77956e-05, No Iterations 3
DILUPBiCGStab:  Solving for Uy, Initial residual = 0.320643, Final residual = 0.00154894, No Iterations 4
DILUPBiCGStab:  Solving for Uz, Initial residual = 0.307048, Final residual = 0.00216495, No Iterations 4
Pressure gradient source: uncorrected Ubar = 38.7084, pressure gradient = 3776.28
GAMG:  Solving for p, Initial residual = 0.297406, Final residual = 0.0280847, No Iterations 4
time step continuity errors : sum local = 2.8535e-13, global = -1.27825e-13, cumulative = 1.12246e-12
Pressure gradient source: uncorrected Ubar = 38.7146, pressure gradient = 2869.26
DILUPBiCGStab:  Solving for omega, Initial residual = 1.11433e-07, Final residual = 5.94122e-10, No Iterations 2
DILUPBiCGStab:  Solving for k, Initial residual = 0.0098732, Final residual = 6.81379e-05, No Iterations 2
bounding k, min: 0 max: 3.7164 average: 0.270645
ExecutionTime = 2.3 s  ClockTime = 9 s

Time = 54

DILUPBiCGStab:  Solving for Ux, Initial residual = 0.00205893, Final residual = 1.66672e-05, No Iterations 3
DILUPBiCGStab:  Solving for Uy, Initial residual = 0.365826, Final residual = 0.00230251, No Iterations 4
DILUPBiCGStab:  Solving for Uz, Initial residual = 0.46794, Final residual = 0.00264759, No Iterations 4
Pressure gradient source: uncorrected Ubar = 38.7087, pressure gradient = 3820.39
GAMG:  Solving for p, Initial residual = 0.321014, Final residual = 0.0256437, No Iterations 5
time step continuity errors : sum local = 1.53625e-13, global = 3.15811e-14, cumulative = 1.15405e-12
Pressure gradient source: uncorrected Ubar = 38.7146, pressure gradient = 2935.18
DILUPBiCGStab:  Solving for omega, Initial residual = 1.08111e-07, Final residual = 5.87706e-10, No Iterations 2
DILUPBiCGStab:  Solving for k, Initial residual = 0.00942594, Final residual = 6.55873e-05, No Iterations 2
bounding k, min: 0 max: 4.03288 average: 0.303767
ExecutionTime = 2.35 s  ClockTime = 9 s

Time = 55

DILUPBiCGStab:  Solving for Ux, Initial residual = 0.00199331, Final residual = 1.55719e-05, No Iterations 3
DILUPBiCGStab:  Solving for Uy, Initial residual = 0.377649, Final residual = 0.00206627, No Iterations 4
DILUPBiCGStab:  Solving for Uz, Initial residual = 0.441753, Final residual = 0.00241923, No Iterations 4
Pressure gradient source: uncorrected Ubar = 38.7089, pressure gradient = 3872.61
GAMG:  Solving for p, Initial residual = 0.281045, Final residual = 0.0204546, No Iterations 5
time step continuity errors : sum local = 2.03545e-13, global = 7.19282e-14, cumulative = 1.22597e-12
Pressure gradient source: uncorrected Ubar = 38.7146, pressure gradient = 3002.75
DILUPBiCGStab:  Solving for omega, Initial residual = 1.04883e-07, Final residual = 5.80048e-10, No Iterations 2
DILUPBiCGStab:  Solving for k, Initial residual = 0.00894961, Final residual = 6.30265e-05, No Iterations 2
bounding k, min: 0 max: 4.34564 average: 0.338796
ExecutionTime = 2.4 s  ClockTime = 9 s

Time = 56

DILUPBiCGStab:  Solving for Ux, Initial residual = 0.00192785, Final residual = 1.44455e-05, No Iterations 3
DILUPBiCGStab:  Solving for Uy, Initial residual = 0.413754, Final residual = 0.00189567, No Iterations 4
DILUPBiCGStab:  Solving for Uz, Initial residual = 0.395068, Final residual = 0.00207066, No Iterations 4
Pressure gradient source: uncorrected Ubar = 38.7091, pressure gradient = 3926.52
GAMG:  Solving for p, Initial residual = 0.314095, Final residual = 0.0306573, No Iterations 4
time step continuity errors : sum local = 3.27455e-13, global = 1.49688e-13, cumulative = 1.37566e-12
Pressure gradient source: uncorrected Ubar = 38.7146, pressure gradient = 3072.02
DILUPBiCGStab:  Solving for omega, Initial residual = 1.0178e-07, Final residual = 5.69698e-10, No Iterations 2
DILUPBiCGStab:  Solving for k, Initial residual = 0.0084774, Final residual = 6.00841e-05, No Iterations 2
bounding k, min: 0 max: 4.64677 average: 0.375535
ExecutionTime = 2.44 s  ClockTime = 9 s

Time = 57

DILUPBiCGStab:  Solving for Ux, Initial residual = 0.00186258, Final residual = 1.32867e-05, No Iterations 3
DILUPBiCGStab:  Solving for Uy, Initial residual = 0.34966, Final residual = 0.00154397, No Iterations 4
DILUPBiCGStab:  Solving for Uz, Initial residual = 0.254736, Final residual = 0.00214283, No Iterations 3
Pressure gradient source: uncorrected Ubar = 38.7094, pressure gradient = 3982.97
GAMG:  Solving for p, Initial residual = 0.29644, Final residual = 0.0162002, No Iterations 5
time step continuity errors : sum local = 1.1204e-13, global = 3.78605e-15, cumulative = 1.37945e-12
Pressure gradient source: uncorrected Ubar = 38.7146, pressure gradient = 3143.17
DILUPBiCGStab:  Solving for omega, Initial residual = 9.88382e-08, Final residual = 5.57072e-10, No Iterations 2
DILUPBiCGStab:  Solving for k, Initial residual = 0.00803892, Final residual = 5.74813e-05, No Iterations 2
bounding k, min: 0 max: 4.94054 average: 0.413849
ExecutionTime = 2.48 s  ClockTime = 9 s

Time = 58

DILUPBiCGStab:  Solving for Ux, Initial residual = 0.00179751, Final residual = 1.20889e-05, No Iterations 3
DILUPBiCGStab:  Solving for Uy, Initial residual = 0.554648, Final residual = 0.00450332, No Iterations 3
DILUPBiCGStab:  Solving for Uz, Initial residual = 0.394208, Final residual = 0.00182464, No Iterations 4
Pressure gradient source: uncorrected Ubar = 38.7096, pressure gradient = 4035.28
GAMG:  Solving for p, Initial residual = 0.280227, Final residual = 0.0161983, No Iterations 5
time step continuity errors : sum local = 1.16567e-13, global = -5.45533e-14, cumulative = 1.32489e-12
Pressure gradient source: uncorrected Ubar = 38.7146, pressure gradient = 3215.56
DILUPBiCGStab:  Solving for omega, Initial residual = 9.59006e-08, Final residual = 5.41836e-10, No Iterations 2
DILUPBiCGStab:  Solving for k, Initial residual = 0.00762419, Final residual = 5.45674e-05, No Iterations 2
bounding k, min: 0 max: 5.22756 average: 0.453584
ExecutionTime = 2.52 s  ClockTime = 9 s

Time = 59

DILUPBiCGStab:  Solving for Ux, Initial residual = 0.0017332, Final residual = 1.09204e-05, No Iterations 3
DILUPBiCGStab:  Solving for Uy, Initial residual = 0.493719, Final residual = 0.00446201, No Iterations 3
DILUPBiCGStab:  Solving for Uz, Initial residual = 0.433203, Final residual = 0.00355132, No Iterations 3
Pressure gradient source: uncorrected Ubar = 38.7098, pressure gradient = 4088.51
GAMG:  Solving for p, Initial residual = 0.285847, Final residual = 0.0201704, No Iterations 4
time step continuity errors : sum local = 2.29318e-13, global = 1.48471e-13, cumulative = 1.47337e-12
Pressure gradient source: uncorrected Ubar = 38.7146, pressure gradient = 3289.2
DILUPBiCGStab:  Solving for omega, Initial residual = 9.31142e-08, Final residual = 5.2497e-10, No Iterations 2
DILUPBiCGStab:  Solving for k, Initial residual = 0.00724899, Final residual = 5.21206e-05, No Iterations 2
bounding k, min: 0 max: 5.51059 average: 0.494641
ExecutionTime = 2.56 s  ClockTime = 9 s

Time = 60

DILUPBiCGStab:  Solving for Ux, Initial residual = 0.00167091, Final residual = 9.80073e-06, No Iterations 3
DILUPBiCGStab:  Solving for Uy, Initial residual = 0.343382, Final residual = 0.00149836, No Iterations 4
DILUPBiCGStab:  Solving for Uz, Initial residual = 0.413922, Final residual = 0.00168108, No Iterations 4
Pressure gradient source: uncorrected Ubar = 38.7101, pressure gradient = 4137.1
GAMG:  Solving for p, Initial residual = 0.27907, Final residual = 0.0161559, No Iterations 5
time step continuity errors : sum local = 1.64335e-13, global = 9.8704e-14, cumulative = 1.57207e-12
Pressure gradient source: uncorrected Ubar = 38.7146, pressure gradient = 3363.39
DILUPBiCGStab:  Solving for omega, Initial residual = 9.03907e-08, Final residual = 5.04545e-10, No Iterations 2
DILUPBiCGStab:  Solving for k, Initial residual = 0.00690451, Final residual = 4.97094e-05, No Iterations 2
bounding k, min: 0 max: 5.7894 average: 0.536914
ExecutionTime = 2.6 s  ClockTime = 9 s

Time = 61

DILUPBiCGStab:  Solving for Ux, Initial residual = 0.00161025, Final residual = 8.78532e-06, No Iterations 3
DILUPBiCGStab:  Solving for Uy, Initial residual = 0.454331, Final residual = 0.00382702, No Iterations 3
DILUPBiCGStab:  Solving for Uz, Initial residual = 0.25896, Final residual = 0.00203205, No Iterations 3
Pressure gradient source: uncorrected Ubar = 38.7104, pressure gradient = 4180.71
GAMG:  Solving for p, Initial residual = 0.279915, Final residual = 0.0181412, No Iterations 5
time step continuity errors : sum local = 2.44536e-13, global = 1.52655e-13, cumulative = 1.72473e-12
Pressure gradient source: uncorrected Ubar = 38.7146, pressure gradient = 3437.35
DILUPBiCGStab:  Solving for omega, Initial residual = 8.78538e-08, Final residual = 4.80823e-10, No Iterations 2
DILUPBiCGStab:  Solving for k, Initial residual = 0.00658646, Final residual = 4.72852e-05, No Iterations 2
bounding k, min: 0 max: 6.06461 average: 0.580297
ExecutionTime = 2.65 s  ClockTime = 9 s

Time = 62

DILUPBiCGStab:  Solving for Ux, Initial residual = 0.00155229, Final residual = 7.89363e-06, No Iterations 3
DILUPBiCGStab:  Solving for Uy, Initial residual = 0.439831, Final residual = 0.00336639, No Iterations 3
DILUPBiCGStab:  Solving for Uz, Initial residual = 0.33705, Final residual = 0.00180095, No Iterations 4
Pressure gradient source: uncorrected Ubar = 38.7107, pressure gradient = 4225.09
GAMG:  Solving for p, Initial residual = 0.259826, Final residual = 0.0255758, No Iterations 4
time step continuity errors : sum local = 2.25132e-13, global = 5.89753e-14, cumulative = 1.7837e-12
Pressure gradient source: uncorrected Ubar = 38.7146, pressure gradient = 3511.09
DILUPBiCGStab:  Solving for omega, Initial residual = 8.53978e-08, Final residual = 4.53831e-10, No Iterations 2
DILUPBiCGStab:  Solving for k, Initial residual = 0.00629865, Final residual = 4.50057e-05, No Iterations 2
bounding k, min: 0 max: 6.33696 average: 0.624719
ExecutionTime = 2.69 s  ClockTime = 9 s

Time = 63

DILUPBiCGStab:  Solving for Ux, Initial residual = 0.00149714, Final residual = 7.10425e-06, No Iterations 3
DILUPBiCGStab:  Solving for Uy, Initial residual = 0.456131, Final residual = 0.00354699, No Iterations 3
DILUPBiCGStab:  Solving for Uz, Initial residual = 0.234106, Final residual = 0.00193666, No Iterations 3
Pressure gradient source: uncorrected Ubar = 38.7109, pressure gradient = 4267.55
GAMG:  Solving for p, Initial residual = 0.24852, Final residual = 0.0184808, No Iterations 4
time step continuity errors : sum local = 1.65023e-13, global = -1.02748e-13, cumulative = 1.68095e-12
Pressure gradient source: uncorrected Ubar = 38.7146, pressure gradient = 3584.34
DILUPBiCGStab:  Solving for omega, Initial residual = 8.30229e-08, Final residual = 4.22253e-10, No Iterations 2
DILUPBiCGStab:  Solving for k, Initial residual = 0.00602942, Final residual = 4.27285e-05, No Iterations 2
bounding k, min: 0 max: 6.60606 average: 0.670078
ExecutionTime = 2.72 s  ClockTime = 9 s

Time = 64

DILUPBiCGStab:  Solving for Ux, Initial residual = 0.00144453, Final residual = 6.4076e-06, No Iterations 3
DILUPBiCGStab:  Solving for Uy, Initial residual = 0.337442, Final residual = 0.00136759, No Iterations 4
DILUPBiCGStab:  Solving for Uz, Initial residual = 0.335376, Final residual = 0.00170395, No Iterations 4
Pressure gradient source: uncorrected Ubar = 38.7112, pressure gradient = 4313.33
GAMG:  Solving for p, Initial residual = 0.259476, Final residual = 0.0205084, No Iterations 4
time step continuity errors : sum local = 1.97125e-13, global = -1.26998e-13, cumulative = 1.55395e-12
Pressure gradient source: uncorrected Ubar = 38.7146, pressure gradient = 3657.48
DILUPBiCGStab:  Solving for omega, Initial residual = 8.08472e-08, Final residual = 7.51473e-10, No Iterations 2
DILUPBiCGStab:  Solving for k, Initial residual = 0.0057842, Final residual = 4.05916e-05, No Iterations 2
bounding k, min: 0 max: 6.87198 average: 0.716313
ExecutionTime = 2.77 s  ClockTime = 9 s

Time = 65

DILUPBiCGStab:  Solving for Ux, Initial residual = 0.00139417, Final residual = 5.82693e-06, No Iterations 3
DILUPBiCGStab:  Solving for Uy, Initial residual = 0.36047, Final residual = 0.00216657, No Iterations 3
DILUPBiCGStab:  Solving for Uz, Initial residual = 0.292428, Final residual = 0.00282171, No Iterations 3
Pressure gradient source: uncorrected Ubar = 38.7114, pressure gradient = 4360.9
GAMG:  Solving for p, Initial residual = 0.276031, Final residual = 0.0261655, No Iterations 4
time step continuity errors : sum local = 2.54797e-13, global = -1.2351e-13, cumulative = 1.43044e-12
Pressure gradient source: uncorrected Ubar = 38.7146, pressure gradient = 3730.6
DILUPBiCGStab:  Solving for omega, Initial residual = 7.88002e-08, Final residual = 6.92767e-10, No Iterations 2
DILUPBiCGStab:  Solving for k, Initial residual = 0.00555916, Final residual = 3.84716e-05, No Iterations 2
bounding k, min: 0 max: 7.13495 average: 0.763362
ExecutionTime = 2.82 s  ClockTime = 9 s

Time = 66

DILUPBiCGStab:  Solving for Ux, Initial residual = 0.00134605, Final residual = 5.38739e-06, No Iterations 3
DILUPBiCGStab:  Solving for Uy, Initial residual = 0.428279, Final residual = 0.00341224, No Iterations 3
DILUPBiCGStab:  Solving for Uz, Initial residual = 0.467397, Final residual = 0.00465306, No Iterations 3
Pressure gradient source: uncorrected Ubar = 38.7116, pressure gradient = 4404.37
GAMG:  Solving for p, Initial residual = 0.29237, Final residual = 0.0284605, No Iterations 4
time step continuity errors : sum local = 2.05615e-13, global = -2.91147e-14, cumulative = 1.40133e-12
Pressure gradient source: uncorrected Ubar = 38.7146, pressure gradient = 3802.99
DILUPBiCGStab:  Solving for omega, Initial residual = 7.68948e-08, Final residual = 6.35136e-10, No Iterations 2
DILUPBiCGStab:  Solving for k, Initial residual = 0.0053436, Final residual = 3.63555e-05, No Iterations 2
bounding k, min: 0 max: 7.39465 average: 0.811122
ExecutionTime = 2.86 s  ClockTime = 9 s

Time = 67

DILUPBiCGStab:  Solving for Ux, Initial residual = 0.00130396, Final residual = 5.09474e-06, No Iterations 3
DILUPBiCGStab:  Solving for Uy, Initial residual = 0.360927, Final residual = 0.00178848, No Iterations 3
DILUPBiCGStab:  Solving for Uz, Initial residual = 0.423841, Final residual = 0.00290921, No Iterations 3
Pressure gradient source: uncorrected Ubar = 38.7118, pressure gradient = 4452.27
GAMG:  Solving for p, Initial residual = 0.253491, Final residual = 0.0179336, No Iterations 4
time step continuity errors : sum local = 1.62124e-13, global = -7.30801e-14, cumulative = 1.32825e-12
Pressure gradient source: uncorrected Ubar = 38.7146, pressure gradient = 3875.16
DILUPBiCGStab:  Solving for omega, Initial residual = 7.50808e-08, Final residual = 5.80691e-10, No Iterations 2
DILUPBiCGStab:  Solving for k, Initial residual = 0.00514194, Final residual = 3.42453e-05, No Iterations 2
bounding k, min: 0 max: 7.65114 average: 0.859515
ExecutionTime = 2.9 s  ClockTime = 9 s

Time = 68

DILUPBiCGStab:  Solving for Ux, Initial residual = 0.00126728, Final residual = 4.89266e-06, No Iterations 3
DILUPBiCGStab:  Solving for Uy, Initial residual = 0.461776, Final residual = 0.00313104, No Iterations 3
DILUPBiCGStab:  Solving for Uz, Initial residual = 0.257418, Final residual = 0.00195627, No Iterations 3
Pressure gradient source: uncorrected Ubar = 38.712, pressure gradient = 4501.83
GAMG:  Solving for p, Initial residual = 0.241318, Final residual = 0.0123957, No Iterations 5
time step continuity errors : sum local = 1.77434e-13, global = 1.34197e-13, cumulative = 1.46245e-12
Pressure gradient source: uncorrected Ubar = 38.7147, pressure gradient = 3947.17
DILUPBiCGStab:  Solving for omega, Initial residual = 7.33666e-08, Final residual = 5.30913e-10, No Iterations 2
DILUPBiCGStab:  Solving for k, Initial residual = 0.00495457, Final residual = 3.21972e-05, No Iterations 2
bounding k, min: 0 max: 7.90458 average: 0.908483
ExecutionTime = 2.94 s  ClockTime = 9 s

Time = 69

DILUPBiCGStab:  Solving for Ux, Initial residual = 0.00123499, Final residual = 4.74932e-06, No Iterations 3
DILUPBiCGStab:  Solving for Uy, Initial residual = 0.418152, Final residual = 0.00336435, No Iterations 3
DILUPBiCGStab:  Solving for Uz, Initial residual = 0.498296, Final residual = 0.00340599, No Iterations 3
Pressure gradient source: uncorrected Ubar = 38.7122, pressure gradient = 4552.59
GAMG:  Solving for p, Initial residual = 0.268457, Final residual = 0.0108537, No Iterations 5
time step continuity errors : sum local = 1.52602e-13, global = 1.0247e-13, cumulative = 1.56492e-12
Pressure gradient source: uncorrected Ubar = 38.7147, pressure gradient = 4019.01
DILUPBiCGStab:  Solving for omega, Initial residual = 7.17319e-08, Final residual = 4.85341e-10, No Iterations 2
DILUPBiCGStab:  Solving for k, Initial residual = 0.00477978, Final residual = 3.02381e-05, No Iterations 2
bounding k, min: 0 max: 8.155 average: 0.957968
ExecutionTime = 2.98 s  ClockTime = 10 s

Time = 70

DILUPBiCGStab:  Solving for Ux, Initial residual = 0.00120649, Final residual = 4.64199e-06, No Iterations 3
DILUPBiCGStab:  Solving for Uy, Initial residual = 0.369201, Final residual = 0.00214, No Iterations 3
DILUPBiCGStab:  Solving for Uz, Initial residual = 0.288413, Final residual = 0.00268639, No Iterations 3
Pressure gradient source: uncorrected Ubar = 38.7123, pressure gradient = 4604.59
[...]
DILUPBiCGStab:  Solving for Uz, Initial residual = 0.48598, Final residual = 0.00466489, No Iterations 2
Pressure gradient source: uncorrected Ubar = 38.715, pressure gradient = 8439.08
GAMG:  Solving for p, Initial residual = 0.249553, Final residual = 0.022201, No Iterations 4
time step continuity errors : sum local = 2.33574e-13, global = 7.43697e-14, cumulative = 3.1539e-11
Pressure gradient source: uncorrected Ubar = 38.715, pressure gradient = 8437.2
DILUPBiCGStab:  Solving for omega, Initial residual = 1.07991e-10, Final residual = 9.38156e-13, No Iterations 1
DILUPBiCGStab:  Solving for k, Initial residual = 3.16029e-06, Final residual = 1.65778e-08, No Iterations 2
bounding k, min: 0 max: 18.2601 average: 6.08895
ExecutionTime = 46.75 s  ClockTime = 53 s

Time = 1091

DILUPBiCGStab:  Solving for Ux, Initial residual = 5.63343e-06, Final residual = 3.99655e-08, No Iterations 2
DILUPBiCGStab:  Solving for Uy, Initial residual = 0.634467, Final residual = 0.00506039, No Iterations 2
DILUPBiCGStab:  Solving for Uz, Initial residual = 0.421624, Final residual = 0.0010824, No Iterations 3
Pressure gradient source: uncorrected Ubar = 38.715, pressure gradient = 8439.16
GAMG:  Solving for p, Initial residual = 0.238972, Final residual = 0.0179785, No Iterations 5
time step continuity errors : sum local = 2.76993e-13, global = 1.76944e-13, cumulative = 3.17159e-11
Pressure gradient source: uncorrected Ubar = 38.715, pressure gradient = 8437.29
DILUPBiCGStab:  Solving for omega, Initial residual = 1.07532e-10, Final residual = 9.34052e-13, No Iterations 1
DILUPBiCGStab:  Solving for k, Initial residual = 3.14726e-06, Final residual = 1.65015e-08, No Iterations 2
bounding k, min: 0 max: 18.2603 average: 6.08894
ExecutionTime = 46.79 s  ClockTime = 53 s

Time = 1092

DILUPBiCGStab:  Solving for Ux, Initial residual = 5.60914e-06, Final residual = 3.97892e-08, No Iterations 2
DILUPBiCGStab:  Solving for Uy, Initial residual = 0.542251, Final residual = 0.00457481, No Iterations 2
DILUPBiCGStab:  Solving for Uz, Initial residual = 0.461053, Final residual = 0.00449735, No Iterations 2
Pressure gradient source: uncorrected Ubar = 38.715, pressure gradient = 8439.23
GAMG:  Solving for p, Initial residual = 0.240127, Final residual = 0.0211092, No Iterations 5
time step continuity errors : sum local = 2.50577e-13, global = 1.54216e-13, cumulative = 3.18701e-11
Pressure gradient source: uncorrected Ubar = 38.715, pressure gradient = 8437.37
DILUPBiCGStab:  Solving for omega, Initial residual = 1.07075e-10, Final residual = 9.29971e-13, No Iterations 1
DILUPBiCGStab:  Solving for k, Initial residual = 3.1343e-06, Final residual = 1.64256e-08, No Iterations 2
bounding k, min: 0 max: 18.2605 average: 6.08894
ExecutionTime = 46.85 s  ClockTime = 53 s

Time = 1093

DILUPBiCGStab:  Solving for Ux, Initial residual = 5.58497e-06, Final residual = 3.96137e-08, No Iterations 2
DILUPBiCGStab:  Solving for Uy, Initial residual = 0.36465, Final residual = 0.00331681, No Iterations 2
DILUPBiCGStab:  Solving for Uz, Initial residual = 0.373084, Final residual = 0.00322335, No Iterations 2
Pressure gradient source: uncorrected Ubar = 38.715, pressure gradient = 8439.31
GAMG:  Solving for p, Initial residual = 0.239466, Final residual = 0.0140708, No Iterations 6
time step continuity errors : sum local = 1.12135e-13, global = -5.59434e-14, cumulative = 3.18142e-11
Pressure gradient source: uncorrected Ubar = 38.715, pressure gradient = 8437.45
DILUPBiCGStab:  Solving for omega, Initial residual = 1.06621e-10, Final residual = 9.25912e-13, No Iterations 1
DILUPBiCGStab:  Solving for k, Initial residual = 3.12141e-06, Final residual = 1.635e-08, No Iterations 2
bounding k, min: 0 max: 18.2607 average: 6.08893
ExecutionTime = 46.89 s  ClockTime = 53 s

Time = 1094

DILUPBiCGStab:  Solving for Ux, Initial residual = 5.5609e-06, Final residual = 3.9439e-08, No Iterations 2
DILUPBiCGStab:  Solving for Uy, Initial residual = 0.673223, Final residual = 0.00630028, No Iterations 2
DILUPBiCGStab:  Solving for Uz, Initial residual = 0.631472, Final residual = 0.00184878, No Iterations 3
Pressure gradient source: uncorrected Ubar = 38.715, pressure gradient = 8439.39
GAMG:  Solving for p, Initial residual = 0.250395, Final residual = 0.016463, No Iterations 5
time step continuity errors : sum local = 1.48901e-13, global = -8.75492e-14, cumulative = 3.17266e-11
Pressure gradient source: uncorrected Ubar = 38.715, pressure gradient = 8437.54
DILUPBiCGStab:  Solving for omega, Initial residual = 1.06169e-10, Final residual = 9.21875e-13, No Iterations 1
DILUPBiCGStab:  Solving for k, Initial residual = 3.10859e-06, Final residual = 1.62748e-08, No Iterations 2
bounding k, min: 0 max: 18.2609 average: 6.08892
ExecutionTime = 46.95 s  ClockTime = 54 s

Time = 1095

DILUPBiCGStab:  Solving for Ux, Initial residual = 5.53695e-06, Final residual = 3.92652e-08, No Iterations 2
DILUPBiCGStab:  Solving for Uy, Initial residual = 0.622554, Final residual = 0.00546526, No Iterations 2
DILUPBiCGStab:  Solving for Uz, Initial residual = 0.416663, Final residual = 0.00402311, No Iterations 2
Pressure gradient source: uncorrected Ubar = 38.715, pressure gradient = 8439.46
GAMG:  Solving for p, Initial residual = 0.253699, Final residual = 0.0170605, No Iterations 8
time step continuity errors : sum local = 1.12547e-13, global = -3.71508e-14, cumulative = 3.16895e-11
Pressure gradient source: uncorrected Ubar = 38.715, pressure gradient = 8437.62
DILUPBiCGStab:  Solving for omega, Initial residual = 1.05719e-10, Final residual = 9.1786e-13, No Iterations 1
DILUPBiCGStab:  Solving for k, Initial residual = 3.09583e-06, Final residual = 1.62e-08, No Iterations 2
bounding k, min: 0 max: 18.2612 average: 6.08891
ExecutionTime = 47.02 s  ClockTime = 54 s

Time = 1096

DILUPBiCGStab:  Solving for Ux, Initial residual = 5.51311e-06, Final residual = 3.90923e-08, No Iterations 2
DILUPBiCGStab:  Solving for Uy, Initial residual = 0.534241, Final residual = 0.0041816, No Iterations 2
DILUPBiCGStab:  Solving for Uz, Initial residual = 0.693987, Final residual = 0.00612595, No Iterations 2
Pressure gradient source: uncorrected Ubar = 38.715, pressure gradient = 8439.54
GAMG:  Solving for p, Initial residual = 0.246679, Final residual = 0.0184665, No Iterations 7
time step continuity errors : sum local = 1.05365e-13, global = -3.6484e-14, cumulative = 3.1653e-11
Pressure gradient source: uncorrected Ubar = 38.715, pressure gradient = 8437.7
DILUPBiCGStab:  Solving for omega, Initial residual = 1.0527e-10, Final residual = 9.13867e-13, No Iterations 1
DILUPBiCGStab:  Solving for k, Initial residual = 3.08312e-06, Final residual = 1.61256e-08, No Iterations 2
bounding k, min: 0 max: 18.2614 average: 6.08891
ExecutionTime = 47.05 s  ClockTime = 54 s

Time = 1097

DILUPBiCGStab:  Solving for Ux, Initial residual = 5.48937e-06, Final residual = 3.89202e-08, No Iterations 2
DILUPBiCGStab:  Solving for Uy, Initial residual = 0.643061, Final residual = 0.00343976, No Iterations 2
DILUPBiCGStab:  Solving for Uz, Initial residual = 0.550537, Final residual = 0.00147975, No Iterations 3
Pressure gradient source: uncorrected Ubar = 38.715, pressure gradient = 8439.61
GAMG:  Solving for p, Initial residual = 0.252627, Final residual = 0.0161016, No Iterations 6
time step continuity errors : sum local = 1.00381e-13, global = 2.28751e-15, cumulative = 3.16553e-11
Pressure gradient source: uncorrected Ubar = 38.715, pressure gradient = 8437.79
DILUPBiCGStab:  Solving for omega, Initial residual = 1.04824e-10, Final residual = 9.09895e-13, No Iterations 1
DILUPBiCGStab:  Solving for k, Initial residual = 3.0705e-06, Final residual = 1.60515e-08, No Iterations 2
bounding k, min: 0 max: 18.2616 average: 6.0889
ExecutionTime = 47.1 s  ClockTime = 54 s

Time = 1098

DILUPBiCGStab:  Solving for Ux, Initial residual = 5.46574e-06, Final residual = 3.8749e-08, No Iterations 2
DILUPBiCGStab:  Solving for Uy, Initial residual = 0.534103, Final residual = 0.00419438, No Iterations 2
DILUPBiCGStab:  Solving for Uz, Initial residual = 0.5482, Final residual = 0.00490608, No Iterations 2
Pressure gradient source: uncorrected Ubar = 38.715, pressure gradient = 8439.69
GAMG:  Solving for p, Initial residual = 0.239096, Final residual = 0.0164245, No Iterations 9
time step continuity errors : sum local = 1.71892e-13, global = 7.25216e-14, cumulative = 3.17278e-11
Pressure gradient source: uncorrected Ubar = 38.715, pressure gradient = 8437.87
DILUPBiCGStab:  Solving for omega, Initial residual = 1.0438e-10, Final residual = 9.05946e-13, No Iterations 1
DILUPBiCGStab:  Solving for k, Initial residual = 3.05794e-06, Final residual = 1.59778e-08, No Iterations 2
bounding k, min: 0 max: 18.2618 average: 6.08889
ExecutionTime = 47.15 s  ClockTime = 54 s

Time = 1099

DILUPBiCGStab:  Solving for Ux, Initial residual = 5.44222e-06, Final residual = 3.85786e-08, No Iterations 2
DILUPBiCGStab:  Solving for Uy, Initial residual = 0.553482, Final residual = 0.00460558, No Iterations 2
DILUPBiCGStab:  Solving for Uz, Initial residual = 0.650915, Final residual = 0.00618252, No Iterations 2
Pressure gradient source: uncorrected Ubar = 38.715, pressure gradient = 8439.76
GAMG:  Solving for p, Initial residual = 0.227119, Final residual = 0.020453, No Iterations 6
time step continuity errors : sum local = 1.22748e-13, global = 2.12753e-14, cumulative = 3.17491e-11
Pressure gradient source: uncorrected Ubar = 38.715, pressure gradient = 8437.95
DILUPBiCGStab:  Solving for omega, Initial residual = 1.03939e-10, Final residual = 9.02017e-13, No Iterations 1
DILUPBiCGStab:  Solving for k, Initial residual = 3.04544e-06, Final residual = 1.59045e-08, No Iterations 2
bounding k, min: 0 max: 18.262 average: 6.08888
ExecutionTime = 47.19 s  ClockTime = 54 s

Time = 1100

DILUPBiCGStab:  Solving for Ux, Initial residual = 5.41881e-06, Final residual = 3.84091e-08, No Iterations 2
DILUPBiCGStab:  Solving for Uy, Initial residual = 0.715182, Final residual = 0.00641153, No Iterations 2
DILUPBiCGStab:  Solving for Uz, Initial residual = 0.408462, Final residual = 0.0034899, No Iterations 2
Pressure gradient source: uncorrected Ubar = 38.715, pressure gradient = 8439.84
GAMG:  Solving for p, Initial residual = 0.256279, Final residual = 0.0182829, No Iterations 9
time step continuity errors : sum local = 1.84529e-13, global = -8.36677e-14, cumulative = 3.16654e-11
Pressure gradient source: uncorrected Ubar = 38.715, pressure gradient = 8438.03
DILUPBiCGStab:  Solving for omega, Initial residual = 1.03499e-10, Final residual = 8.9811e-13, No Iterations 1
DILUPBiCGStab:  Solving for k, Initial residual = 3.033e-06, Final residual = 1.58316e-08, No Iterations 2
bounding k, min: 0 max: 18.2622 average: 6.08888
ExecutionTime = 47.24 s  ClockTime = 54 s

Time = 1101

DILUPBiCGStab:  Solving for Ux, Initial residual = 5.39551e-06, Final residual = 3.82404e-08, No Iterations 2
DILUPBiCGStab:  Solving for Uy, Initial residual = 0.559881, Final residual = 0.0049857, No Iterations 2
DILUPBiCGStab:  Solving for Uz, Initial residual = 0.636255, Final residual = 0.00546626, No Iterations 2
Pressure gradient source: uncorrected Ubar = 38.715, pressure gradient = 8439.91
GAMG:  Solving for p, Initial residual = 0.238041, Final residual = 0.0163535, No Iterations 9
time step continuity errors : sum local = 3.23327e-13, global = -2.20322e-13, cumulative = 3.14451e-11
Pressure gradient source: uncorrected Ubar = 38.715, pressure gradient = 8438.11
DILUPBiCGStab:  Solving for omega, Initial residual = 1.03061e-10, Final residual = 8.94224e-13, No Iterations 1
DILUPBiCGStab:  Solving for k, Initial residual = 3.02062e-06, Final residual = 1.5759e-08, No Iterations 2
bounding k, min: 0 max: 18.2624 average: 6.08887
ExecutionTime = 47.28 s  ClockTime = 54 s

Time = 1102

DILUPBiCGStab:  Solving for Ux, Initial residual = 5.37231e-06, Final residual = 3.80725e-08, No Iterations 2
DILUPBiCGStab:  Solving for Uy, Initial residual = 0.605397, Final residual = 0.00539873, No Iterations 2
DILUPBiCGStab:  Solving for Uz, Initial residual = 0.407553, Final residual = 0.00406368, No Iterations 2
Pressure gradient source: uncorrected Ubar = 38.715, pressure gradient = 8439.98
GAMG:  Solving for p, Initial residual = 0.268723, Final residual = 0.0244438, No Iterations 5
time step continuity errors : sum local = 2.50158e-13, global = -5.11282e-14, cumulative = 3.1394e-11
Pressure gradient source: uncorrected Ubar = 38.715, pressure gradient = 8438.2
DILUPBiCGStab:  Solving for omega, Initial residual = 1.02625e-10, Final residual = 8.9036e-13, No Iterations 1
DILUPBiCGStab:  Solving for k, Initial residual = 3.0083e-06, Final residual = 1.56867e-08, No Iterations 2
bounding k, min: 0 max: 18.2627 average: 6.08886
ExecutionTime = 47.32 s  ClockTime = 54 s

Time = 1103

DILUPBiCGStab:  Solving for Ux, Initial residual = 5.34923e-06, Final residual = 3.79054e-08, No Iterations 2
DILUPBiCGStab:  Solving for Uy, Initial residual = 0.532642, Final residual = 0.00154319, No Iterations 3
DILUPBiCGStab:  Solving for Uz, Initial residual = 0.57272, Final residual = 0.00518417, No Iterations 2
Pressure gradient source: uncorrected Ubar = 38.715, pressure gradient = 8440.06
GAMG:  Solving for p, Initial residual = 0.277255, Final residual = 0.0179171, No Iterations 7
time step continuity errors : sum local = 1.302e-13, global = 5.49931e-14, cumulative = 3.14489e-11
Pressure gradient source: uncorrected Ubar = 38.715, pressure gradient = 8438.28
DILUPBiCGStab:  Solving for omega, Initial residual = 1.02192e-10, Final residual = 8.86517e-13, No Iterations 1
DILUPBiCGStab:  Solving for k, Initial residual = 2.99604e-06, Final residual = 1.56148e-08, No Iterations 2
bounding k, min: 0 max: 18.2629 average: 6.08886
ExecutionTime = 47.36 s  ClockTime = 54 s

Time = 1104

DILUPBiCGStab:  Solving for Ux, Initial residual = 5.32624e-06, Final residual = 3.77392e-08, No Iterations 2
DILUPBiCGStab:  Solving for Uy, Initial residual = 0.389001, Final residual = 0.00337654, No Iterations 2
DILUPBiCGStab:  Solving for Uz, Initial residual = 0.435558, Final residual = 0.0013955, No Iterations 3
Pressure gradient source: uncorrected Ubar = 38.715, pressure gradient = 8440.13
GAMG:  Solving for p, Initial residual = 0.27067, Final residual = 0.0191337, No Iterations 6
time step continuity errors : sum local = 2.20723e-13, global = 9.19111e-14, cumulative = 3.15409e-11
Pressure gradient source: uncorrected Ubar = 38.715, pressure gradient = 8438.36
DILUPBiCGStab:  Solving for omega, Initial residual = 1.0176e-10, Final residual = 8.82695e-13, No Iterations 1
DILUPBiCGStab:  Solving for k, Initial residual = 2.98385e-06, Final residual = 1.55432e-08, No Iterations 2
bounding k, min: 0 max: 18.2631 average: 6.08885
ExecutionTime = 47.4 s  ClockTime = 54 s

Time = 1105

DILUPBiCGStab:  Solving for Ux, Initial residual = 5.30336e-06, Final residual = 3.75737e-08, No Iterations 2
DILUPBiCGStab:  Solving for Uy, Initial residual = 0.393105, Final residual = 0.00169608, No Iterations 3
DILUPBiCGStab:  Solving for Uz, Initial residual = 0.508671, Final residual = 0.00435584, No Iterations 2
Pressure gradient source: uncorrected Ubar = 38.715, pressure gradient = 8440.2
GAMG:  Solving for p, Initial residual = 0.252571, Final residual = 0.0187381, No Iterations 5
time step continuity errors : sum local = 1.41893e-13, global = -1.87731e-14, cumulative = 3.15221e-11
Pressure gradient source: uncorrected Ubar = 38.715, pressure gradient = 8438.44
DILUPBiCGStab:  Solving for omega, Initial residual = 1.01331e-10, Final residual = 8.78894e-13, No Iterations 1
DILUPBiCGStab:  Solving for k, Initial residual = 2.9717e-06, Final residual = 1.5472e-08, No Iterations 2
bounding k, min: 0 max: 18.2633 average: 6.08884
ExecutionTime = 47.44 s  ClockTime = 54 s

Time = 1106

DILUPBiCGStab:  Solving for Ux, Initial residual = 5.28059e-06, Final residual = 3.74091e-08, No Iterations 2
DILUPBiCGStab:  Solving for Uy, Initial residual = 0.490527, Final residual = 0.0022236, No Iterations 3
DILUPBiCGStab:  Solving for Uz, Initial residual = 0.475431, Final residual = 0.00164656, No Iterations 3
Pressure gradient source: uncorrected Ubar = 38.715, pressure gradient = 8440.27
GAMG:  Solving for p, Initial residual = 0.248446, Final residual = 0.0219691, No Iterations 4
time step continuity errors : sum local = 1.41579e-13, global = -2.17713e-14, cumulative = 3.15003e-11
Pressure gradient source: uncorrected Ubar = 38.715, pressure gradient = 8438.52
DILUPBiCGStab:  Solving for omega, Initial residual = 1.00904e-10, Final residual = 8.75114e-13, No Iterations 1
DILUPBiCGStab:  Solving for k, Initial residual = 2.95961e-06, Final residual = 1.54011e-08, No Iterations 2
bounding k, min: 0 max: 18.2635 average: 6.08884
ExecutionTime = 47.48 s  ClockTime = 54 s

Time = 1107

DILUPBiCGStab:  Solving for Ux, Initial residual = 5.25792e-06, Final residual = 3.72453e-08, No Iterations 2
DILUPBiCGStab:  Solving for Uy, Initial residual = 0.410105, Final residual = 0.00129649, No Iterations 3
DILUPBiCGStab:  Solving for Uz, Initial residual = 0.549871, Final residual = 0.0054293, No Iterations 2
Pressure gradient source: uncorrected Ubar = 38.715, pressure gradient = 8440.35
GAMG:  Solving for p, Initial residual = 0.219513, Final residual = 0.0190359, No Iterations 5
time step continuity errors : sum local = 1.61757e-13, global = -6.20702e-14, cumulative = 3.14382e-11
Pressure gradient source: uncorrected Ubar = 38.715, pressure gradient = 8438.6
DILUPBiCGStab:  Solving for omega, Initial residual = 1.00478e-10, Final residual = 8.71356e-13, No Iterations 1
DILUPBiCGStab:  Solving for k, Initial residual = 2.94758e-06, Final residual = 1.53305e-08, No Iterations 2
bounding k, min: 0 max: 18.2637 average: 6.08883
ExecutionTime = 47.52 s  ClockTime = 54 s

Time = 1108

DILUPBiCGStab:  Solving for Ux, Initial residual = 5.23535e-06, Final residual = 3.70823e-08, No Iterations 2
DILUPBiCGStab:  Solving for Uy, Initial residual = 0.469761, Final residual = 0.00437431, No Iterations 2
DILUPBiCGStab:  Solving for Uz, Initial residual = 0.465078, Final residual = 0.00366939, No Iterations 2
Pressure gradient source: uncorrected Ubar = 38.715, pressure gradient = 8440.42
GAMG:  Solving for p, Initial residual = 0.215583, Final residual = 0.0190202, No Iterations 6
time step continuity errors : sum local = 1.47294e-13, global = -5.2171e-14, cumulative = 3.13861e-11
Pressure gradient source: uncorrected Ubar = 38.715, pressure gradient = 8438.68
DILUPBiCGStab:  Solving for omega, Initial residual = 1.00055e-10, Final residual = 8.67619e-13, No Iterations 1
DILUPBiCGStab:  Solving for k, Initial residual = 2.9356e-06, Final residual = 1.52602e-08, No Iterations 2
bounding k, min: 0 max: 18.2639 average: 6.08883
ExecutionTime = 47.56 s  ClockTime = 54 s

Time = 1109

DILUPBiCGStab:  Solving for Ux, Initial residual = 5.21289e-06, Final residual = 3.69201e-08, No Iterations 2
DILUPBiCGStab:  Solving for Uy, Initial residual = 0.560985, Final residual = 0.00400377, No Iterations 2
DILUPBiCGStab:  Solving for Uz, Initial residual = 0.454915, Final residual = 0.0042286, No Iterations 2
Pressure gradient source: uncorrected Ubar = 38.715, pressure gradient = 8440.49
GAMG:  Solving for p, Initial residual = 0.208986, Final residual = 0.0147284, No Iterations 6
time step continuity errors : sum local = 1.08162e-13, global = -2.15249e-14, cumulative = 3.13645e-11
Pressure gradient source: uncorrected Ubar = 38.715, pressure gradient = 8438.75
DILUPBiCGStab:  Solving for omega, Initial residual = 9.9633e-11, Final residual = 8.63902e-13, No Iterations 1
DILUPBiCGStab:  Solving for k, Initial residual = 2.9237e-06, Final residual = 1.51905e-08, No Iterations 2
bounding k, min: 0 max: 18.2641 average: 6.08882
ExecutionTime = 47.6 s  ClockTime = 54 s


SIMPLE solution converged in 1109 iterations

End

