/*---------------------------------------------------------------------------*\
  =========                 |
  \\      /  F ield         | OpenFOAM: The Open Source CFD Toolbox
   \\    /   O peration     | Website:  https://openfoam.org
    \\  /    A nd           | Version:  7
     \\/     M anipulation  |
\*---------------------------------------------------------------------------*/
Build  : 7-3bcbaf946ae9
Exec   : simpleFoam
Date   : May 08 2023
Time   : 21:16:18
Host   : "kaj-HP-ZBook-Studio-G4"
PID    : 258377
I/O    : uncollated
Case   : /home/kaj/Documents/thesis/finalCases/rectDuct/AR_7_Ret_180/00Baseline/beta11
nProcs : 1
sigFpe : Enabling floating point exception trapping (FOAM_SIGFPE).
fileModificationChecking : Monitoring run-time modified files using timeStampMaster (fileModificationSkew 10)
allowSystemOperations : Allowing user-supplied system call operations

// * * * * * * * * * * * * * * * * * * * * * * * * * * * * * * * * * * * * * //
Create time

Using #calcEntry at line 4 in file "/home/kaj/Documents/thesis/finalCases/rectDuct/AR_7_Ret_180/00Baseline/beta11/system/controlDict.functions.convergenceProbes"
Using #codeStream with "/home/kaj/Documents/thesis/finalCases/rectDuct/AR_7_Ret_180/00Baseline/beta11/dynamicCode/platforms/linux64GccDPInt32Opt/lib/libcodeStream_e305d05308d1ade03f6eb88824101ddb2eba3278.so"
Creating new library in "dynamicCode/_e305d05308d1ade03f6eb88824101ddb2eba3278/platforms/linux64GccDPInt32Opt/lib/libcodeStream_e305d05308d1ade03f6eb88824101ddb2eba3278.so"
Invoking "wmake -s libso /home/kaj/Documents/thesis/finalCases/rectDuct/AR_7_Ret_180/00Baseline/beta11/dynamicCode/_e305d05308d1ade03f6eb88824101ddb2eba3278"
wmake libso /home/kaj/Documents/thesis/finalCases/rectDuct/AR_7_Ret_180/00Baseline/beta11/dynamicCode/_e305d05308d1ade03f6eb88824101ddb2eba3278
    wmkdep: codeStreamTemplate.C
    Ctoo: codeStreamTemplate.C
    ld: /home/kaj/Documents/thesis/finalCases/rectDuct/AR_7_Ret_180/00Baseline/beta11/dynamicCode/_e305d05308d1ade03f6eb88824101ddb2eba3278/../platforms/linux64GccDPInt32Opt/lib/libcodeStream_e305d05308d1ade03f6eb88824101ddb2eba3278.so
Using #calcEntry at line 5 in file "/home/kaj/Documents/thesis/finalCases/rectDuct/AR_7_Ret_180/00Baseline/beta11/system/controlDict.functions.convergenceProbes"
Using #codeStream with "/home/kaj/Documents/thesis/finalCases/rectDuct/AR_7_Ret_180/00Baseline/beta11/dynamicCode/platforms/linux64GccDPInt32Opt/lib/libcodeStream_8f3c4192690bcc53a34cf723aeeab9b62f638bd7.so"
Creating new library in "dynamicCode/_8f3c4192690bcc53a34cf723aeeab9b62f638bd7/platforms/linux64GccDPInt32Opt/lib/libcodeStream_8f3c4192690bcc53a34cf723aeeab9b62f638bd7.so"
Invoking "wmake -s libso /home/kaj/Documents/thesis/finalCases/rectDuct/AR_7_Ret_180/00Baseline/beta11/dynamicCode/_8f3c4192690bcc53a34cf723aeeab9b62f638bd7"
wmake libso /home/kaj/Documents/thesis/finalCases/rectDuct/AR_7_Ret_180/00Baseline/beta11/dynamicCode/_8f3c4192690bcc53a34cf723aeeab9b62f638bd7
    wmkdep: codeStreamTemplate.C
    Ctoo: codeStreamTemplate.C
    ld: /home/kaj/Documents/thesis/finalCases/rectDuct/AR_7_Ret_180/00Baseline/beta11/dynamicCode/_8f3c4192690bcc53a34cf723aeeab9b62f638bd7/../platforms/linux64GccDPInt32Opt/lib/libcodeStream_8f3c4192690bcc53a34cf723aeeab9b62f638bd7.so
Using #calcEntry at line 6 in file "/home/kaj/Documents/thesis/finalCases/rectDuct/AR_7_Ret_180/00Baseline/beta11/system/controlDict.functions.convergenceProbes"
Using #codeStream with "/home/kaj/Documents/thesis/finalCases/rectDuct/AR_7_Ret_180/00Baseline/beta11/dynamicCode/platforms/linux64GccDPInt32Opt/lib/libcodeStream_a2727cef0b180b3b2f6a19fffe5ff7cc3de40b59.so"
Creating new library in "dynamicCode/_a2727cef0b180b3b2f6a19fffe5ff7cc3de40b59/platforms/linux64GccDPInt32Opt/lib/libcodeStream_a2727cef0b180b3b2f6a19fffe5ff7cc3de40b59.so"
Invoking "wmake -s libso /home/kaj/Documents/thesis/finalCases/rectDuct/AR_7_Ret_180/00Baseline/beta11/dynamicCode/_a2727cef0b180b3b2f6a19fffe5ff7cc3de40b59"
wmake libso /home/kaj/Documents/thesis/finalCases/rectDuct/AR_7_Ret_180/00Baseline/beta11/dynamicCode/_a2727cef0b180b3b2f6a19fffe5ff7cc3de40b59
    wmkdep: codeStreamTemplate.C
    Ctoo: codeStreamTemplate.C
    ld: /home/kaj/Documents/thesis/finalCases/rectDuct/AR_7_Ret_180/00Baseline/beta11/dynamicCode/_a2727cef0b180b3b2f6a19fffe5ff7cc3de40b59/../platforms/linux64GccDPInt32Opt/lib/libcodeStream_a2727cef0b180b3b2f6a19fffe5ff7cc3de40b59.so
Using #calcEntry at line 7 in file "/home/kaj/Documents/thesis/finalCases/rectDuct/AR_7_Ret_180/00Baseline/beta11/system/controlDict.functions.convergenceProbes"
Using #codeStream with "/home/kaj/Documents/thesis/finalCases/rectDuct/AR_7_Ret_180/00Baseline/beta11/dynamicCode/platforms/linux64GccDPInt32Opt/lib/libcodeStream_4cfdc239927794397c7aae02eeafc7aa6edbc313.so"
Creating new library in "dynamicCode/_4cfdc239927794397c7aae02eeafc7aa6edbc313/platforms/linux64GccDPInt32Opt/lib/libcodeStream_4cfdc239927794397c7aae02eeafc7aa6edbc313.so"
Invoking "wmake -s libso /home/kaj/Documents/thesis/finalCases/rectDuct/AR_7_Ret_180/00Baseline/beta11/dynamicCode/_4cfdc239927794397c7aae02eeafc7aa6edbc313"
wmake libso /home/kaj/Documents/thesis/finalCases/rectDuct/AR_7_Ret_180/00Baseline/beta11/dynamicCode/_4cfdc239927794397c7aae02eeafc7aa6edbc313
    wmkdep: codeStreamTemplate.C
    Ctoo: codeStreamTemplate.C
    ld: /home/kaj/Documents/thesis/finalCases/rectDuct/AR_7_Ret_180/00Baseline/beta11/dynamicCode/_4cfdc239927794397c7aae02eeafc7aa6edbc313/../platforms/linux64GccDPInt32Opt/lib/libcodeStream_4cfdc239927794397c7aae02eeafc7aa6edbc313.so
Using #calcEntry at line 8 in file "/home/kaj/Documents/thesis/finalCases/rectDuct/AR_7_Ret_180/00Baseline/beta11/system/controlDict.functions.convergenceProbes"
Using #codeStream with "/home/kaj/Documents/thesis/finalCases/rectDuct/AR_7_Ret_180/00Baseline/beta11/dynamicCode/platforms/linux64GccDPInt32Opt/lib/libcodeStream_d847d0a0444687a8a569491287eb887fec5c91f6.so"
Creating new library in "dynamicCode/_d847d0a0444687a8a569491287eb887fec5c91f6/platforms/linux64GccDPInt32Opt/lib/libcodeStream_d847d0a0444687a8a569491287eb887fec5c91f6.so"
Invoking "wmake -s libso /home/kaj/Documents/thesis/finalCases/rectDuct/AR_7_Ret_180/00Baseline/beta11/dynamicCode/_d847d0a0444687a8a569491287eb887fec5c91f6"
wmake libso /home/kaj/Documents/thesis/finalCases/rectDuct/AR_7_Ret_180/00Baseline/beta11/dynamicCode/_d847d0a0444687a8a569491287eb887fec5c91f6
    wmkdep: codeStreamTemplate.C
    Ctoo: codeStreamTemplate.C
    ld: /home/kaj/Documents/thesis/finalCases/rectDuct/AR_7_Ret_180/00Baseline/beta11/dynamicCode/_d847d0a0444687a8a569491287eb887fec5c91f6/../platforms/linux64GccDPInt32Opt/lib/libcodeStream_d847d0a0444687a8a569491287eb887fec5c91f6.so
Using #calcEntry at line 9 in file "/home/kaj/Documents/thesis/finalCases/rectDuct/AR_7_Ret_180/00Baseline/beta11/system/controlDict.functions.convergenceProbes"
Using #codeStream with "/home/kaj/Documents/thesis/finalCases/rectDuct/AR_7_Ret_180/00Baseline/beta11/dynamicCode/platforms/linux64GccDPInt32Opt/lib/libcodeStream_35545c138b51aa016cb1c13b3b938663ba1f3866.so"
Creating new library in "dynamicCode/_35545c138b51aa016cb1c13b3b938663ba1f3866/platforms/linux64GccDPInt32Opt/lib/libcodeStream_35545c138b51aa016cb1c13b3b938663ba1f3866.so"
Invoking "wmake -s libso /home/kaj/Documents/thesis/finalCases/rectDuct/AR_7_Ret_180/00Baseline/beta11/dynamicCode/_35545c138b51aa016cb1c13b3b938663ba1f3866"
wmake libso /home/kaj/Documents/thesis/finalCases/rectDuct/AR_7_Ret_180/00Baseline/beta11/dynamicCode/_35545c138b51aa016cb1c13b3b938663ba1f3866
    wmkdep: codeStreamTemplate.C
    Ctoo: codeStreamTemplate.C
    ld: /home/kaj/Documents/thesis/finalCases/rectDuct/AR_7_Ret_180/00Baseline/beta11/dynamicCode/_35545c138b51aa016cb1c13b3b938663ba1f3866/../platforms/linux64GccDPInt32Opt/lib/libcodeStream_35545c138b51aa016cb1c13b3b938663ba1f3866.so
Create mesh for time = 0


SIMPLE: Convergence criteria found
        k: tolerance 5e-06
        omega: tolerance 1e-10

Reading field p

Reading field U

Using #calcEntry at line 19 in file "/home/kaj/Documents/thesis/finalCases/rectDuct/AR_7_Ret_180/00Baseline/beta11/0/U"
Using #codeStream with "/home/kaj/Documents/thesis/finalCases/rectDuct/AR_7_Ret_180/00Baseline/beta11/dynamicCode/platforms/linux64GccDPInt32Opt/lib/libcodeStream_3f3bee1f93bf60dbca6adf1f636db0e337e92709.so"
Creating new library in "dynamicCode/_3f3bee1f93bf60dbca6adf1f636db0e337e92709/platforms/linux64GccDPInt32Opt/lib/libcodeStream_3f3bee1f93bf60dbca6adf1f636db0e337e92709.so"
Invoking "wmake -s libso /home/kaj/Documents/thesis/finalCases/rectDuct/AR_7_Ret_180/00Baseline/beta11/dynamicCode/_3f3bee1f93bf60dbca6adf1f636db0e337e92709"
wmake libso /home/kaj/Documents/thesis/finalCases/rectDuct/AR_7_Ret_180/00Baseline/beta11/dynamicCode/_3f3bee1f93bf60dbca6adf1f636db0e337e92709
    wmkdep: codeStreamTemplate.C
    Ctoo: codeStreamTemplate.C
    ld: /home/kaj/Documents/thesis/finalCases/rectDuct/AR_7_Ret_180/00Baseline/beta11/dynamicCode/_3f3bee1f93bf60dbca6adf1f636db0e337e92709/../platforms/linux64GccDPInt32Opt/lib/libcodeStream_3f3bee1f93bf60dbca6adf1f636db0e337e92709.so
Reading/calculating face flux field phi

Selecting incompressible transport model Newtonian
Selecting turbulence model type RAS
Selecting RAS turbulence model kOmegaSST
Selecting patchDistMethod meshWave
bounding k, min: 0 max: 0.02 average: 0.02
RAS
{
    RASModel        kOmegaSST;
    turbulence      on;
    printCoeffs     on;
    alphaK1         0.85;
    alphaK2         1;
    alphaOmega1     0.5;
    alphaOmega2     0.856;
    gamma1          0.555556;
    gamma2          0.44;
    beta1           0.075;
    beta2           0.0828;
    betaStar        0.09;
    a1              0.31;
    b1              1;
    c1              10;
    F3              false;
}

No MRF models present

Creating finite volume options from "system/fvOptions"

Using #calcEntry at line 20 in file "/home/kaj/Documents/thesis/finalCases/rectDuct/AR_7_Ret_180/00Baseline/beta11/system/fvOptions"
Selecting finite volume options model type meanVelocityForce
    Source: meanVelocity1
    - selecting all cells
    - selected 15463 cell(s) with volume 7e-09
    Initial pressure gradient = 0


Starting time loop

Time = 1

DILUPBiCGStab:  Solving for Ux, Initial residual = 1, Final residual = 0.00928565, No Iterations 1
DILUPBiCGStab:  Solving for Uy, Initial residual = 0.982781, Final residual = 0.00974839, No Iterations 1
DILUPBiCGStab:  Solving for Uz, Initial residual = 0.981849, Final residual = 0.00254169, No Iterations 2
Pressure gradient source: uncorrected Ubar = 39.0676, pressure gradient = 35318
GAMG:  Solving for p, Initial residual = 0.475624, Final residual = 0.0401546, No Iterations 3
time step continuity errors : sum local = 6.95183e-14, global = -6.11357e-14, cumulative = -6.11357e-14
Pressure gradient source: uncorrected Ubar = 39.074, pressure gradient = 4897.43
DILUPBiCGStab:  Solving for omega, Initial residual = 0.161229, Final residual = 0.00148763, No Iterations 1
DILUPBiCGStab:  Solving for k, Initial residual = 1, Final residual = 0.00928166, No Iterations 1
bounding k, min: 0 max: 0.0414428 average: 0.021627
ExecutionTime = 0.33 s  ClockTime = 7 s

Time = 2

DILUPBiCGStab:  Solving for Ux, Initial residual = 0.608318, Final residual = 0.00148952, No Iterations 1
DILUPBiCGStab:  Solving for Uy, Initial residual = 0.914641, Final residual = 0.00425298, No Iterations 3
DILUPBiCGStab:  Solving for Uz, Initial residual = 0.854665, Final residual = 0.00549713, No Iterations 3
Pressure gradient source: uncorrected Ubar = 38.9875, pressure gradient = 58721.8
GAMG:  Solving for p, Initial residual = 0.782126, Final residual = 0.0614327, No Iterations 4
time step continuity errors : sum local = 2.1864e-12, global = -6.33172e-14, cumulative = -1.24453e-13
Pressure gradient source: uncorrected Ubar = 39.0649, pressure gradient = 11130.4
DILUPBiCGStab:  Solving for omega, Initial residual = 0.0549578, Final residual = 1.91577e-05, No Iterations 1
DILUPBiCGStab:  Solving for k, Initial residual = 0.499642, Final residual = 0.00070407, No Iterations 1
bounding k, min: 0 max: 0.0200613 average: 0.0179998
ExecutionTime = 0.41 s  ClockTime = 7 s

Time = 3

DILUPBiCGStab:  Solving for Ux, Initial residual = 0.0280155, Final residual = 0.000188117, No Iterations 2
DILUPBiCGStab:  Solving for Uy, Initial residual = 0.498516, Final residual = 0.0025548, No Iterations 3
DILUPBiCGStab:  Solving for Uz, Initial residual = 0.400333, Final residual = 0.00364458, No Iterations 3
Pressure gradient source: uncorrected Ubar = 39.411, pressure gradient = -48423
GAMG:  Solving for p, Initial residual = 0.850909, Final residual = 0.0638636, No Iterations 4
time step continuity errors : sum local = 3.47243e-12, global = -3.68219e-14, cumulative = -1.61275e-13
Pressure gradient source: uncorrected Ubar = 39.1287, pressure gradient = 1616.97
DILUPBiCGStab:  Solving for omega, Initial residual = 0.00346055, Final residual = 2.98131e-06, No Iterations 1
DILUPBiCGStab:  Solving for k, Initial residual = 0.106523, Final residual = 0.000358794, No Iterations 1
bounding k, min: 0 max: 0.0200769 average: 0.0164542
ExecutionTime = 0.51 s  ClockTime = 7 s

Time = 4

DILUPBiCGStab:  Solving for Ux, Initial residual = 0.0105076, Final residual = 5.75855e-05, No Iterations 2
DILUPBiCGStab:  Solving for Uy, Initial residual = 0.155607, Final residual = 0.00108762, No Iterations 3
DILUPBiCGStab:  Solving for Uz, Initial residual = 0.459692, Final residual = 0.00336584, No Iterations 3
Pressure gradient source: uncorrected Ubar = 39.0412, pressure gradient = 6662.59
GAMG:  Solving for p, Initial residual = 0.82053, Final residual = 0.0599871, No Iterations 4
time step continuity errors : sum local = 3.26485e-12, global = -5.36883e-14, cumulative = -2.14963e-13
Pressure gradient source: uncorrected Ubar = 39.0756, pressure gradient = 1525.6
DILUPBiCGStab:  Solving for omega, Initial residual = 0.00124469, Final residual = 1.13997e-06, No Iterations 1
DILUPBiCGStab:  Solving for k, Initial residual = 0.022857, Final residual = 0.000210125, No Iterations 1
bounding k, min: 0 max: 0.0201451 average: 0.015595
ExecutionTime = 0.59 s  ClockTime = 7 s

Time = 5

DILUPBiCGStab:  Solving for Ux, Initial residual = 0.00633801, Final residual = 4.80187e-05, No Iterations 2
DILUPBiCGStab:  Solving for Uy, Initial residual = 0.108223, Final residual = 0.000726504, No Iterations 3
DILUPBiCGStab:  Solving for Uz, Initial residual = 0.180336, Final residual = 0.0013519, No Iterations 3
Pressure gradient source: uncorrected Ubar = 39.0428, pressure gradient = 6180.58
GAMG:  Solving for p, Initial residual = 0.841371, Final residual = 0.0746665, No Iterations 3
time step continuity errors : sum local = 3.69582e-12, global = -3.51422e-14, cumulative = -2.50105e-13
Pressure gradient source: uncorrected Ubar = 39.0755, pressure gradient = 1455.63
DILUPBiCGStab:  Solving for omega, Initial residual = 0.000426145, Final residual = 4.72121e-07, No Iterations 1
DILUPBiCGStab:  Solving for k, Initial residual = 0.00739345, Final residual = 1.52861e-05, No Iterations 1
bounding k, min: 0 max: 0.0202824 average: 0.0149739
ExecutionTime = 0.69 s  ClockTime = 7 s

Time = 6

DILUPBiCGStab:  Solving for Ux, Initial residual = 0.00482977, Final residual = 4.37517e-05, No Iterations 2
DILUPBiCGStab:  Solving for Uy, Initial residual = 0.111093, Final residual = 0.000622271, No Iterations 3
DILUPBiCGStab:  Solving for Uz, Initial residual = 0.411209, Final residual = 0.00253438, No Iterations 3
Pressure gradient source: uncorrected Ubar = 39.0403, pressure gradient = 6509.08
GAMG:  Solving for p, Initial residual = 0.809858, Final residual = 0.0569259, No Iterations 4
time step continuity errors : sum local = 2.41458e-12, global = 3.58842e-15, cumulative = -2.46517e-13
Pressure gradient source: uncorrected Ubar = 39.0747, pressure gradient = 1505.99
DILUPBiCGStab:  Solving for omega, Initial residual = 0.000173434, Final residual = 2.66566e-07, No Iterations 1
DILUPBiCGStab:  Solving for k, Initial residual = 0.00332979, Final residual = 1.40587e-05, No Iterations 1
bounding k, min: 0 max: 0.0206027 average: 0.014547
ExecutionTime = 0.77 s  ClockTime = 7 s

Time = 7

DILUPBiCGStab:  Solving for Ux, Initial residual = 0.00412028, Final residual = 2.69532e-05, No Iterations 2
DILUPBiCGStab:  Solving for Uy, Initial residual = 0.456872, Final residual = 0.00285453, No Iterations 3
DILUPBiCGStab:  Solving for Uz, Initial residual = 0.591905, Final residual = 0.0030472, No Iterations 3
Pressure gradient source: uncorrected Ubar = 39.0577, pressure gradient = 3970.35
GAMG:  Solving for p, Initial residual = 0.808609, Final residual = 0.0601151, No Iterations 4
time step continuity errors : sum local = 2.03695e-12, global = -4.8968e-14, cumulative = -2.95485e-13
Pressure gradient source: uncorrected Ubar = 39.0751, pressure gradient = 1497.54
DILUPBiCGStab:  Solving for omega, Initial residual = 6.62855e-05, Final residual = 1.62679e-07, No Iterations 1
DILUPBiCGStab:  Solving for k, Initial residual = 0.00200232, Final residual = 1.56053e-05, No Iterations 1
bounding k, min: 0 max: 0.0210832 average: 0.0142557
ExecutionTime = 0.86 s  ClockTime = 7 s

Time = 8

DILUPBiCGStab:  Solving for Ux, Initial residual = 0.00374324, Final residual = 2.78176e-05, No Iterations 2
DILUPBiCGStab:  Solving for Uy, Initial residual = 0.137312, Final residual = 0.000842166, No Iterations 3
DILUPBiCGStab:  Solving for Uz, Initial residual = 0.342421, Final residual = 0.00178754, No Iterations 3
Pressure gradient source: uncorrected Ubar = 39.0555, pressure gradient = 4250.92
GAMG:  Solving for p, Initial residual = 0.801056, Final residual = 0.0615473, No Iterations 4
time step continuity errors : sum local = 1.69689e-12, global = -1.30579e-14, cumulative = -3.08543e-13
Pressure gradient source: uncorrected Ubar = 39.0747, pressure gradient = 1532.89
DILUPBiCGStab:  Solving for omega, Initial residual = 2.73741e-05, Final residual = 1.32699e-07, No Iterations 1
DILUPBiCGStab:  Solving for k, Initial residual = 0.00143527, Final residual = 6.0105e-06, No Iterations 2
bounding k, min: 0 max: 0.0218014 average: 0.0140677
ExecutionTime = 0.95 s  ClockTime = 7 s

Time = 9

DILUPBiCGStab:  Solving for Ux, Initial residual = 0.00359385, Final residual = 3.03024e-05, No Iterations 2
DILUPBiCGStab:  Solving for Uy, Initial residual = 0.127997, Final residual = 0.000793445, No Iterations 3
DILUPBiCGStab:  Solving for Uz, Initial residual = 0.224056, Final residual = 0.00202201, No Iterations 3
Pressure gradient source: uncorrected Ubar = 39.0548, pressure gradient = 4347.21
GAMG:  Solving for p, Initial residual = 0.777925, Final residual = 0.0675595, No Iterations 4
time step continuity errors : sum local = 1.53035e-12, global = -2.08167e-14, cumulative = -3.29359e-13
Pressure gradient source: uncorrected Ubar = 39.0747, pressure gradient = 1575.61
DILUPBiCGStab:  Solving for omega, Initial residual = 1.0932e-05, Final residual = 1.08569e-07, No Iterations 1
DILUPBiCGStab:  Solving for k, Initial residual = 0.00115714, Final residual = 1.00571e-05, No Iterations 2
bounding k, min: 0 max: 0.0227667 average: 0.0139649
ExecutionTime = 1.04 s  ClockTime = 7 s

Time = 10

DILUPBiCGStab:  Solving for Ux, Initial residual = 0.00363536, Final residual = 3.54017e-05, No Iterations 2
DILUPBiCGStab:  Solving for Uy, Initial residual = 0.137527, Final residual = 0.000920152, No Iterations 3
DILUPBiCGStab:  Solving for Uz, Initial residual = 0.650376, Final residual = 0.00405673, No Iterations 3
Pressure gradient source: uncorrected Ubar = 39.0557, pressure gradient = 4186.84
GAMG:  Solving for p, Initial residual = 0.74894, Final residual = 0.0530285, No Iterations 4
time step continuity errors : sum local = 1.14706e-12, global = -6.5994e-14, cumulative = -3.95353e-13
Pressure gradient source: uncorrected Ubar = 39.075, pressure gradient = 1578.09
DILUPBiCGStab:  Solving for omega, Initial residual = 5.42812e-06, Final residual = 1.14478e-08, No Iterations 1
DILUPBiCGStab:  Solving for k, Initial residual = 0.00103032, Final residual = 2.50085e-06, No Iterations 2
bounding k, min: 0 max: 0.0240168 average: 0.0139237
ExecutionTime = 1.13 s  ClockTime = 7 s

Time = 11

DILUPBiCGStab:  Solving for Ux, Initial residual = 0.00374816, Final residual = 2.29515e-05, No Iterations 3
DILUPBiCGStab:  Solving for Uy, Initial residual = 0.3675, Final residual = 0.00305704, No Iterations 3
DILUPBiCGStab:  Solving for Uz, Initial residual = 0.339662, Final residual = 0.00250804, No Iterations 3
Pressure gradient source: uncorrected Ubar = 39.0648, pressure gradient = 2935.17
GAMG:  Solving for p, Initial residual = 0.727435, Final residual = 0.0638831, No Iterations 4
time step continuity errors : sum local = 1.17919e-12, global = -6.53841e-14, cumulative = -4.60738e-13
Pressure gradient source: uncorrected Ubar = 39.0748, pressure gradient = 1603.75
DILUPBiCGStab:  Solving for omega, Initial residual = 2.55992e-06, Final residual = 1.00537e-08, No Iterations 1
DILUPBiCGStab:  Solving for k, Initial residual = 0.000978898, Final residual = 3.51862e-06, No Iterations 2
bounding k, min: 0 max: 0.0254701 average: 0.0139316
ExecutionTime = 1.22 s  ClockTime = 7 s

Time = 12

DILUPBiCGStab:  Solving for Ux, Initial residual = 0.00387229, Final residual = 2.47009e-05, No Iterations 3
DILUPBiCGStab:  Solving for Uy, Initial residual = 0.324876, Final residual = 0.00270532, No Iterations 3
DILUPBiCGStab:  Solving for Uz, Initial residual = 0.231487, Final residual = 0.0021592, No Iterations 3
Pressure gradient source: uncorrected Ubar = 39.0626, pressure gradient = 3257.62
GAMG:  Solving for p, Initial residual = 0.718087, Final residual = 0.0702482, No Iterations 4
time step continuity errors : sum local = 1.07925e-12, global = -9.92037e-14, cumulative = -5.59941e-13
Pressure gradient source: uncorrected Ubar = 39.0745, pressure gradient = 1668.38
DILUPBiCGStab:  Solving for omega, Initial residual = 1.85017e-06, Final residual = 9.3288e-09, No Iterations 1
DILUPBiCGStab:  Solving for k, Initial residual = 0.000976217, Final residual = 5.59723e-06, No Iterations 2
bounding k, min: 0 max: 0.0271621 average: 0.0139874
ExecutionTime = 1.31 s  ClockTime = 8 s

Time = 13

DILUPBiCGStab:  Solving for Ux, Initial residual = 0.00401006, Final residual = 2.80073e-05, No Iterations 3
DILUPBiCGStab:  Solving for Uy, Initial residual = 0.253285, Final residual = 0.00217365, No Iterations 3
DILUPBiCGStab:  Solving for Uz, Initial residual = 0.324069, Final residual = 0.00214332, No Iterations 3
Pressure gradient source: uncorrected Ubar = 39.065, pressure gradient = 2985.21
GAMG:  Solving for p, Initial residual = 0.66869, Final residual = 0.0540648, No Iterations 4
time step continuity errors : sum local = 7.17551e-13, global = -5.79953e-14, cumulative = -6.17937e-13
Pressure gradient source: uncorrected Ubar = 39.0748, pressure gradient = 1690.94
DILUPBiCGStab:  Solving for omega, Initial residual = 1.21811e-06, Final residual = 8.50655e-09, No Iterations 1
DILUPBiCGStab:  Solving for k, Initial residual = 0.00100988, Final residual = 6.5241e-06, No Iterations 2
bounding k, min: 0 max: 0.0292527 average: 0.0140893
ExecutionTime = 1.4 s  ClockTime = 8 s

Time = 14

DILUPBiCGStab:  Solving for Ux, Initial residual = 0.00413323, Final residual = 3.05136e-05, No Iterations 3
DILUPBiCGStab:  Solving for Uy, Initial residual = 0.278451, Final residual = 0.00220664, No Iterations 3
DILUPBiCGStab:  Solving for Uz, Initial residual = 0.583457, Final residual = 0.00426502, No Iterations 3
Pressure gradient source: uncorrected Ubar = 39.0641, pressure gradient = 3112.94
GAMG:  Solving for p, Initial residual = 0.65764, Final residual = 0.0645905, No Iterations 4
time step continuity errors : sum local = 7.34896e-13, global = 4.47891e-14, cumulative = -5.73148e-13
Pressure gradient source: uncorrected Ubar = 39.0748, pressure gradient = 1723.45
DILUPBiCGStab:  Solving for omega, Initial residual = 1.1157e-06, Final residual = 8.12795e-09, No Iterations 1
DILUPBiCGStab:  Solving for k, Initial residual = 0.00106957, Final residual = 8.35397e-06, No Iterations 2
bounding k, min: 0 max: 0.0315909 average: 0.0142357
ExecutionTime = 1.49 s  ClockTime = 8 s

Time = 15

DILUPBiCGStab:  Solving for Ux, Initial residual = 0.00424467, Final residual = 3.25136e-05, No Iterations 3
DILUPBiCGStab:  Solving for Uy, Initial residual = 0.375058, Final residual = 0.00315481, No Iterations 3
DILUPBiCGStab:  Solving for Uz, Initial residual = 0.399702, Final residual = 0.00356525, No Iterations 3
Pressure gradient source: uncorrected Ubar = 39.063, pressure gradient = 3277.97
GAMG:  Solving for p, Initial residual = 0.660256, Final residual = 0.059659, No Iterations 5
time step continuity errors : sum local = 5.92271e-13, global = 1.02997e-14, cumulative = -5.62848e-13
Pressure gradient source: uncorrected Ubar = 39.0746, pressure gradient = 1773.06
DILUPBiCGStab:  Solving for omega, Initial residual = 9.05316e-07, Final residual = 7.57698e-09, No Iterations 1
DILUPBiCGStab:  Solving for k, Initial residual = 0.00115061, Final residual = 1.10132e-05, No Iterations 2
bounding k, min: 0 max: 0.0342992 average: 0.0144259
ExecutionTime = 1.58 s  ClockTime = 8 s

Time = 16

DILUPBiCGStab:  Solving for Ux, Initial residual = 0.00434828, Final residual = 3.53787e-05, No Iterations 3
DILUPBiCGStab:  Solving for Uy, Initial residual = 0.652066, Final residual = 0.00626727, No Iterations 3
DILUPBiCGStab:  Solving for Uz, Initial residual = 0.418947, Final residual = 0.00312866, No Iterations 3
Pressure gradient source: uncorrected Ubar = 39.0642, pressure gradient = 3162.56
GAMG:  Solving for p, Initial residual = 0.602711, Final residual = 0.0544148, No Iterations 5
time step continuity errors : sum local = 5.05848e-13, global = 4.99818e-14, cumulative = -5.12866e-13
Pressure gradient source: uncorrected Ubar = 39.0748, pressure gradient = 1802.63
DILUPBiCGStab:  Solving for omega, Initial residual = 8.60771e-07, Final residual = 7.48304e-09, No Iterations 1
DILUPBiCGStab:  Solving for k, Initial residual = 0.00124464, Final residual = 3.33819e-06, No Iterations 3
bounding k, min: 0 max: 0.0374246 average: 0.0146619
ExecutionTime = 1.67 s  ClockTime = 8 s

Time = 17

DILUPBiCGStab:  Solving for Ux, Initial residual = 0.00444024, Final residual = 3.83393e-05, No Iterations 3
DILUPBiCGStab:  Solving for Uy, Initial residual = 0.431907, Final residual = 0.00377269, No Iterations 3
DILUPBiCGStab:  Solving for Uz, Initial residual = 0.62903, Final residual = 0.00577596, No Iterations 3
Pressure gradient source: uncorrected Ubar = 39.0643, pressure gradient = 3171.7
GAMG:  Solving for p, Initial residual = 0.560588, Final residual = 0.0402421, No Iterations 6
time step continuity errors : sum local = 3.86404e-13, global = -3.59474e-14, cumulative = -5.48814e-13
Pressure gradient source: uncorrected Ubar = 39.0748, pressure gradient = 1828.49
DILUPBiCGStab:  Solving for omega, Initial residual = 7.70427e-07, Final residual = 7.28176e-09, No Iterations 1
DILUPBiCGStab:  Solving for k, Initial residual = 0.00135005, Final residual = 3.92722e-06, No Iterations 3
bounding k, min: 0 max: 0.0408249 average: 0.0149418
ExecutionTime = 1.77 s  ClockTime = 8 s

Time = 18

DILUPBiCGStab:  Solving for Ux, Initial residual = 0.0045052, Final residual = 4.11644e-05, No Iterations 3
DILUPBiCGStab:  Solving for Uy, Initial residual = 0.413001, Final residual = 0.00380126, No Iterations 3
DILUPBiCGStab:  Solving for Uz, Initial residual = 0.454743, Final residual = 0.00346819, No Iterations 3
Pressure gradient source: uncorrected Ubar = 39.0644, pressure gradient = 3171.08
GAMG:  Solving for p, Initial residual = 0.571334, Final residual = 0.0528795, No Iterations 7
time step continuity errors : sum local = 4.09298e-13, global = 1.12114e-14, cumulative = -5.37602e-13
Pressure gradient source: uncorrected Ubar = 39.0748, pressure gradient = 1850.74
DILUPBiCGStab:  Solving for omega, Initial residual = 7.12707e-07, Final residual = 2.02604e-09, No Iterations 2
DILUPBiCGStab:  Solving for k, Initial residual = 0.00144669, Final residual = 4.44904e-06, No Iterations 3
bounding k, min: 0 max: 0.0445625 average: 0.0152605
ExecutionTime = 1.87 s  ClockTime = 8 s

Time = 19

DILUPBiCGStab:  Solving for Ux, Initial residual = 0.00452721, Final residual = 4.21906e-05, No Iterations 3
DILUPBiCGStab:  Solving for Uy, Initial residual = 0.47998, Final residual = 0.00453883, No Iterations 3
DILUPBiCGStab:  Solving for Uz, Initial residual = 0.495588, Final residual = 0.00261569, No Iterations 4
Pressure gradient source: uncorrected Ubar = 39.0623, pressure gradient = 3462.18
GAMG:  Solving for p, Initial residual = 0.561904, Final residual = 0.053533, No Iterations 5
time step continuity errors : sum local = 4.18507e-13, global = -6.109e-15, cumulative = -5.43711e-13
Pressure gradient source: uncorrected Ubar = 39.0745, pressure gradient = 1909.48
DILUPBiCGStab:  Solving for omega, Initial residual = 6.54442e-07, Final residual = 2.07379e-09, No Iterations 2
DILUPBiCGStab:  Solving for k, Initial residual = 0.00154423, Final residual = 4.9901e-06, No Iterations 3
bounding k, min: 0 max: 0.0485624 average: 0.0156175
ExecutionTime = 1.96 s  ClockTime = 8 s

Time = 20

DILUPBiCGStab:  Solving for Ux, Initial residual = 0.00452331, Final residual = 4.43963e-05, No Iterations 3
DILUPBiCGStab:  Solving for Uy, Initial residual = 0.622838, Final residual = 0.0060653, No Iterations 3
DILUPBiCGStab:  Solving for Uz, Initial residual = 0.42619, Final residual = 0.00369277, No Iterations 3
Pressure gradient source: uncorrected Ubar = 39.0644, pressure gradient = 3248.85
GAMG:  Solving for p, Initial residual = 0.528313, Final residual = 0.045241, No Iterations 7
time step continuity errors : sum local = 3.24713e-13, global = -2.04022e-14, cumulative = -5.64113e-13
Pressure gradient source: uncorrected Ubar = 39.0748, pressure gradient = 1938.2
DILUPBiCGStab:  Solving for omega, Initial residual = 6.06244e-07, Final residual = 2.11753e-09, No Iterations 2
DILUPBiCGStab:  Solving for k, Initial residual = 0.0016419, Final residual = 5.7984e-06, No Iterations 3
bounding k, min: 0 max: 0.0527391 average: 0.0160124
ExecutionTime = 2.06 s  ClockTime = 8 s

Time = 21

DILUPBiCGStab:  Solving for Ux, Initial residual = 0.00447165, Final residual = 2.24665e-05, No Iterations 3
DILUPBiCGStab:  Solving for Uy, Initial residual = 0.690883, Final residual = 0.00314891, No Iterations 4
DILUPBiCGStab:  Solving for Uz, Initial residual = 0.624582, Final residual = 0.00367477, No Iterations 4
Pressure gradient source: uncorrected Ubar = 39.0662, pressure gradient = 3054.41
GAMG:  Solving for p, Initial residual = 0.527061, Final residual = 0.0499357, No Iterations 6
time step continuity errors : sum local = 3.34489e-13, global = 4.00101e-14, cumulative = -5.24103e-13
Pressure gradient source: uncorrected Ubar = 39.0747, pressure gradient = 1973.1
DILUPBiCGStab:  Solving for omega, Initial residual = 5.63568e-07, Final residual = 2.15419e-09, No Iterations 2
DILUPBiCGStab:  Solving for k, Initial residual = 0.00173921, Final residual = 6.82953e-06, No Iterations 3
bounding k, min: 0 max: 0.0571512 average: 0.0164451
ExecutionTime = 2.15 s  ClockTime = 8 s

Time = 22

DILUPBiCGStab:  Solving for Ux, Initial residual = 0.00440189, Final residual = 2.39496e-05, No Iterations 3
DILUPBiCGStab:  Solving for Uy, Initial residual = 0.620704, Final residual = 0.00326873, No Iterations 4
DILUPBiCGStab:  Solving for Uz, Initial residual = 0.449871, Final residual = 0.00251935, No Iterations 4
Pressure gradient source: uncorrected Ubar = 39.0684, pressure gradient = 2801.04
GAMG:  Solving for p, Initial residual = 0.507691, Final residual = 0.0463666, No Iterations 6
time step continuity errors : sum local = 3.36271e-13, global = 5.66234e-14, cumulative = -4.6748e-13
Pressure gradient source: uncorrected Ubar = 39.075, pressure gradient = 1973.25
DILUPBiCGStab:  Solving for omega, Initial residual = 5.25658e-07, Final residual = 2.18329e-09, No Iterations 2
DILUPBiCGStab:  Solving for k, Initial residual = 0.00183387, Final residual = 7.76808e-06, No Iterations 3
bounding k, min: 0 max: 0.062074 average: 0.0169167
ExecutionTime = 2.25 s  ClockTime = 8 s

Time = 23

DILUPBiCGStab:  Solving for Ux, Initial residual = 0.0043015, Final residual = 2.42483e-05, No Iterations 3
DILUPBiCGStab:  Solving for Uy, Initial residual = 0.531336, Final residual = 0.00521096, No Iterations 3
DILUPBiCGStab:  Solving for Uz, Initial residual = 0.434099, Final residual = 0.00224506, No Iterations 4
Pressure gradient source: uncorrected Ubar = 39.0665, pressure gradient = 3039.47
GAMG:  Solving for p, Initial residual = 0.501027, Final residual = 0.0476851, No Iterations 6
time step continuity errors : sum local = 2.73855e-13, global = 5.98164e-14, cumulative = -4.07663e-13
Pressure gradient source: uncorrected Ubar = 39.0748, pressure gradient = 2003.11
DILUPBiCGStab:  Solving for omega, Initial residual = 4.90921e-07, Final residual = 2.20362e-09, No Iterations 2
DILUPBiCGStab:  Solving for k, Initial residual = 0.00193384, Final residual = 8.64713e-06, No Iterations 3
bounding k, min: 0 max: 0.0672819 average: 0.0174292
ExecutionTime = 2.35 s  ClockTime = 9 s

Time = 24

DILUPBiCGStab:  Solving for Ux, Initial residual = 0.00419317, Final residual = 2.4739e-05, No Iterations 3
DILUPBiCGStab:  Solving for Uy, Initial residual = 0.678081, Final residual = 0.00296571, No Iterations 4
DILUPBiCGStab:  Solving for Uz, Initial residual = 0.560958, Final residual = 0.00327331, No Iterations 4
Pressure gradient source: uncorrected Ubar = 39.0672, pressure gradient = 2973.38
GAMG:  Solving for p, Initial residual = 0.456423, Final residual = 0.0384242, No Iterations 6
time step continuity errors : sum local = 2.64771e-13, global = -7.20312e-14, cumulative = -4.79695e-13
Pressure gradient source: uncorrected Ubar = 39.0748, pressure gradient = 2023.99
DILUPBiCGStab:  Solving for omega, Initial residual = 4.59613e-07, Final residual = 2.22684e-09, No Iterations 2
DILUPBiCGStab:  Solving for k, Initial residual = 0.00203712, Final residual = 9.41758e-06, No Iterations 3
bounding k, min: 0 max: 0.0728197 average: 0.0179851
ExecutionTime = 2.45 s  ClockTime = 9 s

Time = 25

DILUPBiCGStab:  Solving for Ux, Initial residual = 0.00407633, Final residual = 2.47237e-05, No Iterations 3
DILUPBiCGStab:  Solving for Uy, Initial residual = 0.599873, Final residual = 0.00324023, No Iterations 4
DILUPBiCGStab:  Solving for Uz, Initial residual = 0.47176, Final residual = 0.00327052, No Iterations 4
Pressure gradient source: uncorrected Ubar = 39.0669, pressure gradient = 3038.08
GAMG:  Solving for p, Initial residual = 0.447832, Final residual = 0.0423495, No Iterations 6
time step continuity errors : sum local = 2.58074e-13, global = -5.30693e-14, cumulative = -5.32764e-13
Pressure gradient source: uncorrected Ubar = 39.0748, pressure gradient = 2053.14
DILUPBiCGStab:  Solving for omega, Initial residual = 4.31848e-07, Final residual = 2.24962e-09, No Iterations 2
DILUPBiCGStab:  Solving for k, Initial residual = 0.00214478, Final residual = 9.96674e-06, No Iterations 3
bounding k, min: 0 max: 0.0787562 average: 0.0185871
ExecutionTime = 2.54 s  ClockTime = 9 s

Time = 26

DILUPBiCGStab:  Solving for Ux, Initial residual = 0.00395427, Final residual = 2.46797e-05, No Iterations 3
DILUPBiCGStab:  Solving for Uy, Initial residual = 0.526541, Final residual = 0.0027349, No Iterations 4
DILUPBiCGStab:  Solving for Uz, Initial residual = 0.276835, Final residual = 0.00170292, No Iterations 4
Pressure gradient source: uncorrected Ubar = 39.0671, pressure gradient = 3039.14
GAMG:  Solving for p, Initial residual = 0.44901, Final residual = 0.0373853, No Iterations 5
time step continuity errors : sum local = 3.0005e-13, global = -1.32045e-13, cumulative = -6.64809e-13
Pressure gradient source: uncorrected Ubar = 39.0748, pressure gradient = 2082.22
DILUPBiCGStab:  Solving for omega, Initial residual = 4.06571e-07, Final residual = 2.26177e-09, No Iterations 2
DILUPBiCGStab:  Solving for k, Initial residual = 0.00225967, Final residual = 1.04538e-05, No Iterations 3
bounding k, min: 0 max: 0.0852276 average: 0.0192391
ExecutionTime = 2.63 s  ClockTime = 9 s

Time = 27

DILUPBiCGStab:  Solving for Ux, Initial residual = 0.00384055, Final residual = 2.48948e-05, No Iterations 3
DILUPBiCGStab:  Solving for Uy, Initial residual = 0.547431, Final residual = 0.00260753, No Iterations 4
DILUPBiCGStab:  Solving for Uz, Initial residual = 0.297127, Final residual = 0.0015483, No Iterations 4
Pressure gradient source: uncorrected Ubar = 39.0684, pressure gradient = 2899.9
GAMG:  Solving for p, Initial residual = 0.449874, Final residual = 0.0437299, No Iterations 4
time step continuity errors : sum local = 2.81144e-13, global = -4.19452e-14, cumulative = -7.06754e-13
Pressure gradient source: uncorrected Ubar = 39.0749, pressure gradient = 2093.8
DILUPBiCGStab:  Solving for omega, Initial residual = 3.83329e-07, Final residual = 2.26844e-09, No Iterations 2
DILUPBiCGStab:  Solving for k, Initial residual = 0.00239056, Final residual = 1.10202e-05, No Iterations 3
bounding k, min: 0 max: 0.0925935 average: 0.0199479
ExecutionTime = 2.73 s  ClockTime = 9 s

Time = 28

DILUPBiCGStab:  Solving for Ux, Initial residual = 0.00372104, Final residual = 2.53935e-05, No Iterations 3
DILUPBiCGStab:  Solving for Uy, Initial residual = 0.546807, Final residual = 0.00367231, No Iterations 4
DILUPBiCGStab:  Solving for Uz, Initial residual = 0.46744, Final residual = 0.00428481, No Iterations 4
Pressure gradient source: uncorrected Ubar = 39.0689, pressure gradient = 2846.85
GAMG:  Solving for p, Initial residual = 0.430885, Final residual = 0.0303517, No Iterations 7
time step continuity errors : sum local = 2.48477e-13, global = -1.03588e-13, cumulative = -8.10342e-13
Pressure gradient source: uncorrected Ubar = 39.075, pressure gradient = 2098.08
DILUPBiCGStab:  Solving for omega, Initial residual = 3.62617e-07, Final residual = 2.27027e-09, No Iterations 2
DILUPBiCGStab:  Solving for k, Initial residual = 0.00254592, Final residual = 1.18694e-05, No Iterations 3
bounding k, min: 0 max: 0.101115 average: 0.0207236
ExecutionTime = 2.83 s  ClockTime = 9 s

Time = 29

DILUPBiCGStab:  Solving for Ux, Initial residual = 0.00360834, Final residual = 2.55051e-05, No Iterations 3
DILUPBiCGStab:  Solving for Uy, Initial residual = 0.656729, Final residual = 0.0037513, No Iterations 4
DILUPBiCGStab:  Solving for Uz, Initial residual = 0.553748, Final residual = 0.00197568, No Iterations 4
Pressure gradient source: uncorrected Ubar = 39.0687, pressure gradient = 2871.24
GAMG:  Solving for p, Initial residual = 0.441184, Final residual = 0.0392069, No Iterations 5
time step continuity errors : sum local = 2.31208e-13, global = -3.89503e-14, cumulative = -8.49293e-13
Pressure gradient source: uncorrected Ubar = 39.0749, pressure gradient = 2105.89
DILUPBiCGStab:  Solving for omega, Initial residual = 3.43449e-07, Final residual = 2.26824e-09, No Iterations 2
DILUPBiCGStab:  Solving for k, Initial residual = 0.00273159, Final residual = 1.27894e-05, No Iterations 3
bounding k, min: 0 max: 0.111279 average: 0.0215809
ExecutionTime = 2.91 s  ClockTime = 9 s

Time = 30

DILUPBiCGStab:  Solving for Ux, Initial residual = 0.0034943, Final residual = 2.56161e-05, No Iterations 3
DILUPBiCGStab:  Solving for Uy, Initial residual = 0.613737, Final residual = 0.00396361, No Iterations 4
DILUPBiCGStab:  Solving for Uz, Initial residual = 0.483709, Final residual = 0.00325521, No Iterations 4
Pressure gradient source: uncorrected Ubar = 39.0686, pressure gradient = 2892.28
GAMG:  Solving for p, Initial residual = 0.431901, Final residual = 0.0254478, No Iterations 5
time step continuity errors : sum local = 1.84585e-13, global = -6.28202e-14, cumulative = -9.12113e-13
Pressure gradient source: uncorrected Ubar = 39.0749, pressure gradient = 2116.52
DILUPBiCGStab:  Solving for omega, Initial residual = 3.25761e-07, Final residual = 2.24623e-09, No Iterations 2
DILUPBiCGStab:  Solving for k, Initial residual = 0.00296764, Final residual = 1.39088e-05, No Iterations 3
bounding k, min: 0 max: 0.123865 average: 0.0225417
ExecutionTime = 3.02 s  ClockTime = 9 s

Time = 31

DILUPBiCGStab:  Solving for Ux, Initial residual = 0.00338779, Final residual = 2.56617e-05, No Iterations 3
DILUPBiCGStab:  Solving for Uy, Initial residual = 0.664746, Final residual = 0.00491267, No Iterations 4
DILUPBiCGStab:  Solving for Uz, Initial residual = 0.343792, Final residual = 0.00322399, No Iterations 4
Pressure gradient source: uncorrected Ubar = 39.069, pressure gradient = 2852.54
GAMG:  Solving for p, Initial residual = 0.38557, Final residual = 0.0329415, No Iterations 4
time step continuity errors : sum local = 1.54161e-13, global = -3.73024e-16, cumulative = -9.12486e-13
Pressure gradient source: uncorrected Ubar = 39.0749, pressure gradient = 2122.73
DILUPBiCGStab:  Solving for omega, Initial residual = 3.09399e-07, Final residual = 2.19589e-09, No Iterations 2
DILUPBiCGStab:  Solving for k, Initial residual = 0.00327353, Final residual = 1.5178e-05, No Iterations 3
bounding k, min: 0 max: 0.13993 average: 0.0236364
ExecutionTime = 3.11 s  ClockTime = 9 s

Time = 32

DILUPBiCGStab:  Solving for Ux, Initial residual = 0.00328364, Final residual = 2.54971e-05, No Iterations 3
DILUPBiCGStab:  Solving for Uy, Initial residual = 0.490604, Final residual = 0.00357727, No Iterations 4
DILUPBiCGStab:  Solving for Uz, Initial residual = 0.416097, Final residual = 0.00315698, No Iterations 4
Pressure gradient source: uncorrected Ubar = 39.0687, pressure gradient = 2887.07
GAMG:  Solving for p, Initial residual = 0.441646, Final residual = 0.0436974, No Iterations 4
time step continuity errors : sum local = 2.48644e-13, global = -9.91449e-14, cumulative = -1.01163e-12
Pressure gradient source: uncorrected Ubar = 39.0749, pressure gradient = 2133.87
DILUPBiCGStab:  Solving for omega, Initial residual = 2.9428e-07, Final residual = 2.12588e-09, No Iterations 2
DILUPBiCGStab:  Solving for k, Initial residual = 0.00366968, Final residual = 1.65854e-05, No Iterations 3
bounding k, min: 0 max: 0.160834 average: 0.024907
ExecutionTime = 3.2 s  ClockTime = 9 s

Time = 33

DILUPBiCGStab:  Solving for Ux, Initial residual = 0.00318556, Final residual = 2.54211e-05, No Iterations 3
DILUPBiCGStab:  Solving for Uy, Initial residual = 0.604725, Final residual = 0.00530502, No Iterations 4
DILUPBiCGStab:  Solving for Uz, Initial residual = 0.39225, Final residual = 0.00273777, No Iterations 4
Pressure gradient source: uncorrected Ubar = 39.0692, pressure gradient = 2834.22
GAMG:  Solving for p, Initial residual = 0.410727, Final residual = 0.0409106, No Iterations 5
time step continuity errors : sum local = 2.14104e-13, global = 4.44843e-15, cumulative = -1.00718e-12
Pressure gradient source: uncorrected Ubar = 39.075, pressure gradient = 2139.2
DILUPBiCGStab:  Solving for omega, Initial residual = 2.80208e-07, Final residual = 2.05095e-09, No Iterations 2
DILUPBiCGStab:  Solving for k, Initial residual = 0.00415293, Final residual = 1.81128e-05, No Iterations 3
bounding k, min: 0 max: 0.186722 average: 0.0264045
ExecutionTime = 3.29 s  ClockTime = 10 s

Time = 34

DILUPBiCGStab:  Solving for Ux, Initial residual = 0.0030905, Final residual = 2.53357e-05, No Iterations 3
DILUPBiCGStab:  Solving for Uy, Initial residual = 0.593536, Final residual = 0.00234027, No Iterations 4
DILUPBiCGStab:  Solving for Uz, Initial residual = 0.333446, Final residual = 0.00295238, No Iterations 4
Pressure gradient source: uncorrected Ubar = 39.0693, pressure gradient = 2828.99
GAMG:  Solving for p, Initial residual = 0.418882, Final residual = 0.0396302, No Iterations 4
time step continuity errors : sum local = 2.27043e-13, global = -3.18218e-14, cumulative = -1.039e-12
Pressure gradient source: uncorrected Ubar = 39.075, pressure gradient = 2144.57
DILUPBiCGStab:  Solving for omega, Initial residual = 2.67013e-07, Final residual = 1.99298e-09, No Iterations 2
DILUPBiCGStab:  Solving for k, Initial residual = 0.00467424, Final residual = 1.97642e-05, No Iterations 3
bounding k, min: 0 max: 0.217946 average: 0.0281759
ExecutionTime = 3.39 s  ClockTime = 10 s

Time = 35

DILUPBiCGStab:  Solving for Ux, Initial residual = 0.00299852, Final residual = 2.52168e-05, No Iterations 3
DILUPBiCGStab:  Solving for Uy, Initial residual = 0.490471, Final residual = 0.00382476, No Iterations 4
DILUPBiCGStab:  Solving for Uz, Initial residual = 0.368229, Final residual = 0.00304825, No Iterations 4
Pressure gradient source: uncorrected Ubar = 39.0694, pressure gradient = 2821.26
GAMG:  Solving for p, Initial residual = 0.412178, Final residual = 0.0345067, No Iterations 5
time step continuity errors : sum local = 1.56332e-13, global = 1.59772e-14, cumulative = -1.02303e-12
Pressure gradient source: uncorrected Ubar = 39.075, pressure gradient = 2149.69
DILUPBiCGStab:  Solving for omega, Initial residual = 2.55002e-07, Final residual = 1.97586e-09, No Iterations 2
DILUPBiCGStab:  Solving for k, Initial residual = 0.00523951, Final residual = 2.15579e-05, No Iterations 3
bounding k, min: 0 max: 0.255728 average: 0.0302786
ExecutionTime = 3.48 s  ClockTime = 10 s

Time = 36

DILUPBiCGStab:  Solving for Ux, Initial residual = 0.00290976, Final residual = 2.50198e-05, No Iterations 3
DILUPBiCGStab:  Solving for Uy, Initial residual = 0.585836, Final residual = 0.00461205, No Iterations 4
DILUPBiCGStab:  Solving for Uz, Initial residual = 0.454244, Final residual = 0.00353804, No Iterations 4
Pressure gradient source: uncorrected Ubar = 39.0693, pressure gradient = 2831.38
GAMG:  Solving for p, Initial residual = 0.417177, Final residual = 0.0328788, No Iterations 7
time step continuity errors : sum local = 1.58061e-13, global = -3.94376e-14, cumulative = -1.06246e-12
Pressure gradient source: uncorrected Ubar = 39.0749, pressure gradient = 2156.77
DILUPBiCGStab:  Solving for omega, Initial residual = 2.43785e-07, Final residual = 1.96559e-09, No Iterations 2
DILUPBiCGStab:  Solving for k, Initial residual = 0.00584787, Final residual = 2.34585e-05, No Iterations 3
bounding k, min: 0 max: 0.301506 average: 0.0327827
ExecutionTime = 3.58 s  ClockTime = 10 s

Time = 37

DILUPBiCGStab:  Solving for Ux, Initial residual = 0.00282371, Final residual = 2.47233e-05, No Iterations 3
DILUPBiCGStab:  Solving for Uy, Initial residual = 0.478052, Final residual = 0.00180732, No Iterations 4
DILUPBiCGStab:  Solving for Uz, Initial residual = 0.569808, Final residual = 0.00520706, No Iterations 4
Pressure gradient source: uncorrected Ubar = 39.0693, pressure gradient = 2842.61
GAMG:  Solving for p, Initial residual = 0.396879, Final residual = 0.0312935, No Iterations 7
time step continuity errors : sum local = 2.02401e-13, global = 6.26374e-14, cumulative = -9.99827e-13
Pressure gradient source: uncorrected Ubar = 39.0749, pressure gradient = 2165.95
DILUPBiCGStab:  Solving for omega, Initial residual = 2.33297e-07, Final residual = 1.9607e-09, No Iterations 2
DILUPBiCGStab:  Solving for k, Initial residual = 0.00649908, Final residual = 6.40036e-05, No Iterations 2
bounding k, min: 0 max: 0.357039 average: 0.035759
ExecutionTime = 3.67 s  ClockTime = 10 s

Time = 38

DILUPBiCGStab:  Solving for Ux, Initial residual = 0.00274034, Final residual = 2.43563e-05, No Iterations 3
DILUPBiCGStab:  Solving for Uy, Initial residual = 0.613102, Final residual = 0.0043799, No Iterations 4
DILUPBiCGStab:  Solving for Uz, Initial residual = 0.397766, Final residual = 0.0033747, No Iterations 4
Pressure gradient source: uncorrected Ubar = 39.0693, pressure gradient = 2848.27
GAMG:  Solving for p, Initial residual = 0.446267, Final residual = 0.0441999, No Iterations 5
time step continuity errors : sum local = 2.86466e-13, global = -1.08014e-13, cumulative = -1.10784e-12
Pressure gradient source: uncorrected Ubar = 39.0749, pressure gradient = 2176.56
DILUPBiCGStab:  Solving for omega, Initial residual = 2.23476e-07, Final residual = 1.96776e-09, No Iterations 2
DILUPBiCGStab:  Solving for k, Initial residual = 0.00718673, Final residual = 6.79612e-05, No Iterations 2
bounding k, min: 0 max: 0.424233 average: 0.0393215
ExecutionTime = 3.77 s  ClockTime = 10 s

Time = 39

DILUPBiCGStab:  Solving for Ux, Initial residual = 0.00265952, Final residual = 2.3881e-05, No Iterations 3
DILUPBiCGStab:  Solving for Uy, Initial residual = 0.654803, Final residual = 0.00543099, No Iterations 4
DILUPBiCGStab:  Solving for Uz, Initial residual = 0.310885, Final residual = 0.00270281, No Iterations 4
Pressure gradient source: uncorrected Ubar = 39.0693, pressure gradient = 2861.32
GAMG:  Solving for p, Initial residual = 0.452639, Final residual = 0.0404459, No Iterations 4
time step continuity errors : sum local = 2.63207e-13, global = -9.02963e-14, cumulative = -1.19814e-12
Pressure gradient source: uncorrected Ubar = 39.0749, pressure gradient = 2189.48
DILUPBiCGStab:  Solving for omega, Initial residual = 2.14424e-07, Final residual = 1.98443e-09, No Iterations 2
DILUPBiCGStab:  Solving for k, Initial residual = 0.00787298, Final residual = 7.15331e-05, No Iterations 2
bounding k, min: 0 max: 0.505191 average: 0.0435811
ExecutionTime = 3.86 s  ClockTime = 10 s

Time = 40

DILUPBiCGStab:  Solving for Ux, Initial residual = 0.00258105, Final residual = 2.33256e-05, No Iterations 3
DILUPBiCGStab:  Solving for Uy, Initial residual = 0.674996, Final residual = 0.00432555, No Iterations 4
DILUPBiCGStab:  Solving for Uz, Initial residual = 0.216905, Final residual = 0.00195225, No Iterations 4
Pressure gradient source: uncorrected Ubar = 39.0693, pressure gradient = 2876.7
GAMG:  Solving for p, Initial residual = 0.443559, Final residual = 0.0382921, No Iterations 5
time step continuity errors : sum local = 2.03509e-13, global = -4.42717e-14, cumulative = -1.24241e-12
Pressure gradient source: uncorrected Ubar = 39.0749, pressure gradient = 2204.99
DILUPBiCGStab:  Solving for omega, Initial residual = 2.05843e-07, Final residual = 2.00827e-09, No Iterations 2
DILUPBiCGStab:  Solving for k, Initial residual = 0.00854472, Final residual = 7.48687e-05, No Iterations 2
bounding k, min: 0 max: 0.602106 average: 0.0486657
ExecutionTime = 3.96 s  ClockTime = 10 s

Time = 41

DILUPBiCGStab:  Solving for Ux, Initial residual = 0.00250461, Final residual = 2.26902e-05, No Iterations 3
DILUPBiCGStab:  Solving for Uy, Initial residual = 0.541002, Final residual = 0.00242083, No Iterations 4
DILUPBiCGStab:  Solving for Uz, Initial residual = 0.355078, Final residual = 0.00327171, No Iterations 4
Pressure gradient source: uncorrected Ubar = 39.0694, pressure gradient = 2892.72
GAMG:  Solving for p, Initial residual = 0.399497, Final residual = 0.0381997, No Iterations 4
time step continuity errors : sum local = 1.81724e-13, global = 1.62427e-14, cumulative = -1.22617e-12
Pressure gradient source: uncorrected Ubar = 39.0749, pressure gradient = 2223.1
DILUPBiCGStab:  Solving for omega, Initial residual = 1.97682e-07, Final residual = 6.89954e-10, No Iterations 2
DILUPBiCGStab:  Solving for k, Initial residual = 0.00918022, Final residual = 7.78494e-05, No Iterations 2
bounding k, min: 0 max: 0.717155 average: 0.0547149
ExecutionTime = 4.05 s  ClockTime = 10 s

Time = 42

DILUPBiCGStab:  Solving for Ux, Initial residual = 0.00243058, Final residual = 2.1963e-05, No Iterations 3
DILUPBiCGStab:  Solving for Uy, Initial residual = 0.548319, Final residual = 0.00422997, No Iterations 4
DILUPBiCGStab:  Solving for Uz, Initial residual = 0.458321, Final residual = 0.00397702, No Iterations 4
Pressure gradient source: uncorrected Ubar = 39.0694, pressure gradient = 2907.97
GAMG:  Solving for p, Initial residual = 0.452688, Final residual = 0.045078, No Iterations 4
time step continuity errors : sum local = 2.78938e-13, global = -7.95243e-14, cumulative = -1.30569e-12
Pressure gradient source: uncorrected Ubar = 39.0748, pressure gradient = 2243.62
DILUPBiCGStab:  Solving for omega, Initial residual = 1.89796e-07, Final residual = 6.72864e-10, No Iterations 2
DILUPBiCGStab:  Solving for k, Initial residual = 0.00975535, Final residual = 8.05945e-05, No Iterations 2
bounding k, min: 0 max: 0.852445 average: 0.0618805
ExecutionTime = 4.15 s  ClockTime = 10 s

Time = 43

DILUPBiCGStab:  Solving for Ux, Initial residual = 0.00235799, Final residual = 2.11327e-05, No Iterations 3
DILUPBiCGStab:  Solving for Uy, Initial residual = 0.590696, Final residual = 0.00453525, No Iterations 4
DILUPBiCGStab:  Solving for Uz, Initial residual = 0.435764, Final residual = 0.0039293, No Iterations 4
Pressure gradient source: uncorrected Ubar = 39.0695, pressure gradient = 2931.64
GAMG:  Solving for p, Initial residual = 0.449319, Final residual = 0.032765, No Iterations 5
time step continuity errors : sum local = 2.08677e-13, global = -7.64245e-14, cumulative = -1.38212e-12
Pressure gradient source: uncorrected Ubar = 39.0748, pressure gradient = 2267.42
DILUPBiCGStab:  Solving for omega, Initial residual = 1.82363e-07, Final residual = 6.54831e-10, No Iterations 2
DILUPBiCGStab:  Solving for k, Initial residual = 0.0102881, Final residual = 8.31389e-05, No Iterations 2
bounding k, min: 0 max: 1.01001 average: 0.0703452
ExecutionTime = 4.24 s  ClockTime = 10 s

Time = 44

DILUPBiCGStab:  Solving for Ux, Initial residual = 0.00228734, Final residual = 2.02277e-05, No Iterations 3
DILUPBiCGStab:  Solving for Uy, Initial residual = 0.578754, Final residual = 0.0043522, No Iterations 4
DILUPBiCGStab:  Solving for Uz, Initial residual = 0.492893, Final residual = 0.00380142, No Iterations 4
Pressure gradient source: uncorrected Ubar = 39.0695, pressure gradient = 2956.63
GAMG:  Solving for p, Initial residual = 0.464331, Final residual = 0.0446105, No Iterations 4
time step continuity errors : sum local = 3.02958e-13, global = -1.29857e-13, cumulative = -1.51197e-12
Pressure gradient source: uncorrected Ubar = 39.0748, pressure gradient = 2294.44
DILUPBiCGStab:  Solving for omega, Initial residual = 1.75317e-07, Final residual = 6.35509e-10, No Iterations 2
DILUPBiCGStab:  Solving for k, Initial residual = 0.0107448, Final residual = 8.50295e-05, No Iterations 2
bounding k, min: 0 max: 1.19143 average: 0.0802925
ExecutionTime = 4.34 s  ClockTime = 11 s

Time = 45

DILUPBiCGStab:  Solving for Ux, Initial residual = 0.00221761, Final residual = 1.9189e-05, No Iterations 3
DILUPBiCGStab:  Solving for Uy, Initial residual = 0.521946, Final residual = 0.00390503, No Iterations 4
DILUPBiCGStab:  Solving for Uz, Initial residual = 0.492971, Final residual = 0.00396852, No Iterations 4
Pressure gradient source: uncorrected Ubar = 39.0695, pressure gradient = 2995.54
GAMG:  Solving for p, Initial residual = 0.416525, Final residual = 0.0396878, No Iterations 4
time step continuity errors : sum local = 2.27788e-13, global = 7.7836e-15, cumulative = -1.50419e-12
Pressure gradient source: uncorrected Ubar = 39.0748, pressure gradient = 2326.11
DILUPBiCGStab:  Solving for omega, Initial residual = 1.68593e-07, Final residual = 6.14713e-10, No Iterations 2
DILUPBiCGStab:  Solving for k, Initial residual = 0.0111284, Final residual = 8.64301e-05, No Iterations 2
bounding k, min: 0 max: 1.39769 average: 0.0919191
ExecutionTime = 4.43 s  ClockTime = 11 s

Time = 46

DILUPBiCGStab:  Solving for Ux, Initial residual = 0.00214886, Final residual = 1.80668e-05, No Iterations 3
DILUPBiCGStab:  Solving for Uy, Initial residual = 0.568371, Final residual = 0.00405439, No Iterations 4
DILUPBiCGStab:  Solving for Uz, Initial residual = 0.276751, Final residual = 0.00228506, No Iterations 4
Pressure gradient source: uncorrected Ubar = 39.0695, pressure gradient = 3035.43
GAMG:  Solving for p, Initial residual = 0.449354, Final residual = 0.0394352, No Iterations 6
time step continuity errors : sum local = 2.47482e-13, global = -6.62937e-14, cumulative = -1.57048e-12
Pressure gradient source: uncorrected Ubar = 39.0747, pressure gradient = 2362.2
DILUPBiCGStab:  Solving for omega, Initial residual = 1.62262e-07, Final residual = 5.94873e-10, No Iterations 2
DILUPBiCGStab:  Solving for k, Initial residual = 0.0114165, Final residual = 8.68394e-05, No Iterations 2
bounding k, min: 0 max: 1.62894 average: 0.105412
ExecutionTime = 4.52 s  ClockTime = 11 s

Time = 47

DILUPBiCGStab:  Solving for Ux, Initial residual = 0.00208119, Final residual = 1.69535e-05, No Iterations 3
DILUPBiCGStab:  Solving for Uy, Initial residual = 0.653874, Final residual = 0.00448528, No Iterations 4
DILUPBiCGStab:  Solving for Uz, Initial residual = 0.279717, Final residual = 0.00193491, No Iterations 4
Pressure gradient source: uncorrected Ubar = 39.0695, pressure gradient = 3074.24
GAMG:  Solving for p, Initial residual = 0.419474, Final residual = 0.0277156, No Iterations 5
time step continuity errors : sum local = 2.82903e-13, global = -1.58152e-13, cumulative = -1.72863e-12
Pressure gradient source: uncorrected Ubar = 39.0747, pressure gradient = 2402.09
DILUPBiCGStab:  Solving for omega, Initial residual = 1.56246e-07, Final residual = 5.76362e-10, No Iterations 2
DILUPBiCGStab:  Solving for k, Initial residual = 0.0116199, Final residual = 8.68208e-05, No Iterations 2
bounding k, min: 0 max: 1.88461 average: 0.120956
ExecutionTime = 4.62 s  ClockTime = 11 s

Time = 48

DILUPBiCGStab:  Solving for Ux, Initial residual = 0.00201377, Final residual = 1.58748e-05, No Iterations 3
DILUPBiCGStab:  Solving for Uy, Initial residual = 0.496394, Final residual = 0.00332328, No Iterations 4
DILUPBiCGStab:  Solving for Uz, Initial residual = 0.366134, Final residual = 0.00255799, No Iterations 4
Pressure gradient source: uncorrected Ubar = 39.0696, pressure gradient = 3121.89
GAMG:  Solving for p, Initial residual = 0.429578, Final residual = 0.0413311, No Iterations 5
time step continuity errors : sum local = 2.64839e-13, global = -6.57972e-14, cumulative = -1.79443e-12
Pressure gradient source: uncorrected Ubar = 39.0747, pressure gradient = 2446.26
DILUPBiCGStab:  Solving for omega, Initial residual = 1.50587e-07, Final residual = 5.59253e-10, No Iterations 2
DILUPBiCGStab:  Solving for k, Initial residual = 0.0117319, Final residual = 8.60484e-05, No Iterations 2
bounding k, min: 0 max: 2.16331 average: 0.138719
ExecutionTime = 4.72 s  ClockTime = 11 s

Time = 49

DILUPBiCGStab:  Solving for Ux, Initial residual = 0.00194744, Final residual = 1.47622e-05, No Iterations 3
DILUPBiCGStab:  Solving for Uy, Initial residual = 0.496593, Final residual = 0.00300504, No Iterations 4
DILUPBiCGStab:  Solving for Uz, Initial residual = 0.571778, Final residual = 0.00403251, No Iterations 4
Pressure gradient source: uncorrected Ubar = 39.0695, pressure gradient = 3186.41
GAMG:  Solving for p, Initial residual = 0.420352, Final residual = 0.0215819, No Iterations 5
time step continuity errors : sum local = 1.5676e-13, global = -4.80828e-14, cumulative = -1.84251e-12
Pressure gradient source: uncorrected Ubar = 39.0746, pressure gradient = 2495.99
DILUPBiCGStab:  Solving for omega, Initial residual = 1.45291e-07, Final residual = 5.43729e-10, No Iterations 2
DILUPBiCGStab:  Solving for k, Initial residual = 0.0117637, Final residual = 8.50306e-05, No Iterations 2
bounding k, min: 0 max: 2.46298 average: 0.158848
ExecutionTime = 4.81 s  ClockTime = 11 s

Time = 50

DILUPBiCGStab:  Solving for Ux, Initial residual = 0.00188135, Final residual = 1.36975e-05, No Iterations 3
DILUPBiCGStab:  Solving for Uy, Initial residual = 0.669096, Final residual = 0.00361517, No Iterations 4
DILUPBiCGStab:  Solving for Uz, Initial residual = 0.374795, Final residual = 0.00234131, No Iterations 4
Pressure gradient source: uncorrected Ubar = 39.0696, pressure gradient = 3241.22
GAMG:  Solving for p, Initial residual = 0.434527, Final residual = 0.0308436, No Iterations 7
time step continuity errors : sum local = 1.74425e-13, global = -3.27021e-14, cumulative = -1.87522e-12
Pressure gradient source: uncorrected Ubar = 39.0746, pressure gradient = 2549.42
DILUPBiCGStab:  Solving for omega, Initial residual = 1.40405e-07, Final residual = 5.29913e-10, No Iterations 2
DILUPBiCGStab:  Solving for k, Initial residual = 0.0117225, Final residual = 8.37105e-05, No Iterations 2
bounding k, min: 0 max: 2.78105 average: 0.181467
ExecutionTime = 4.9 s  ClockTime = 11 s

Time = 51

DILUPBiCGStab:  Solving for Ux, Initial residual = 0.00181632, Final residual = 1.26928e-05, No Iterations 3
DILUPBiCGStab:  Solving for Uy, Initial residual = 0.506654, Final residual = 0.00249694, No Iterations 4
DILUPBiCGStab:  Solving for Uz, Initial residual = 0.58228, Final residual = 0.00357418, No Iterations 4
Pressure gradient source: uncorrected Ubar = 39.0698, pressure gradient = 3287.65
GAMG:  Solving for p, Initial residual = 0.386913, Final residual = 0.0273467, No Iterations 7
time step continuity errors : sum local = 1.47873e-13, global = -4.03898e-14, cumulative = -1.91561e-12
Pressure gradient source: uncorrected Ubar = 39.0746, pressure gradient = 2604.94
DILUPBiCGStab:  Solving for omega, Initial residual = 1.35878e-07, Final residual = 5.17134e-10, No Iterations 2
DILUPBiCGStab:  Solving for k, Initial residual = 0.0116129, Final residual = 8.19669e-05, No Iterations 2
bounding k, min: 0 max: 3.11463 average: 0.206663
ExecutionTime = 5 s  ClockTime = 11 s

Time = 52

DILUPBiCGStab:  Solving for Ux, Initial residual = 0.00175563, Final residual = 1.17036e-05, No Iterations 3
DILUPBiCGStab:  Solving for Uy, Initial residual = 0.570553, Final residual = 0.00358315, No Iterations 4
DILUPBiCGStab:  Solving for Uz, Initial residual = 0.286462, Final residual = 0.00172304, No Iterations 4
Pressure gradient source: uncorrected Ubar = 39.0698, pressure gradient = 3348
GAMG:  Solving for p, Initial residual = 0.404086, Final residual = 0.0239676, No Iterations 5
time step continuity errors : sum local = 1.42743e-13, global = -4.10328e-14, cumulative = -1.95664e-12
Pressure gradient source: uncorrected Ubar = 39.0746, pressure gradient = 2663.48
DILUPBiCGStab:  Solving for omega, Initial residual = 1.3166e-07, Final residual = 5.05692e-10, No Iterations 2
DILUPBiCGStab:  Solving for k, Initial residual = 0.0114055, Final residual = 7.98236e-05, No Iterations 2
bounding k, min: 0 max: 3.45374 average: 0.234432
ExecutionTime = 5.09 s  ClockTime = 11 s

Time = 53

DILUPBiCGStab:  Solving for Ux, Initial residual = 0.00169817, Final residual = 1.0813e-05, No Iterations 3
DILUPBiCGStab:  Solving for Uy, Initial residual = 0.60165, Final residual = 0.00588965, No Iterations 3
DILUPBiCGStab:  Solving for Uz, Initial residual = 0.491172, Final residual = 0.00302912, No Iterations 4
Pressure gradient source: uncorrected Ubar = 39.07, pressure gradient = 3396.39
GAMG:  Solving for p, Initial residual = 0.392699, Final residual = 0.0255272, No Iterations 9
time step continuity errors : sum local = 2.16388e-13, global = -8.9706e-14, cumulative = -2.04634e-12
Pressure gradient source: uncorrected Ubar = 39.0746, pressure gradient = 2722.76
DILUPBiCGStab:  Solving for omega, Initial residual = 1.27686e-07, Final residual = 4.96851e-10, No Iterations 2
DILUPBiCGStab:  Solving for k, Initial residual = 0.0110185, Final residual = 7.68745e-05, No Iterations 2
bounding k, min: 0 max: 3.78003 average: 0.264552
ExecutionTime = 5.2 s  ClockTime = 11 s

Time = 54

DILUPBiCGStab:  Solving for Ux, Initial residual = 0.00164379, Final residual = 1.63611e-05, No Iterations 3
DILUPBiCGStab:  Solving for Uy, Initial residual = 0.589132, Final residual = 0.00317552, No Iterations 4
DILUPBiCGStab:  Solving for Uz, Initial residual = 0.703928, Final residual = 0.00347419, No Iterations 4
Pressure gradient source: uncorrected Ubar = 39.0693, pressure gradient = 3572.28
GAMG:  Solving for p, Initial residual = 0.376936, Final residual = 0.0335576, No Iterations 5
time step continuity errors : sum local = 2.75303e-13, global = -9.84821e-14, cumulative = -2.14483e-12
Pressure gradient source: uncorrected Ubar = 39.0746, pressure gradient = 2783.62
DILUPBiCGStab:  Solving for omega, Initial residual = 1.24031e-07, Final residual = 4.8931e-10, No Iterations 2
DILUPBiCGStab:  Solving for k, Initial residual = 0.0105282, Final residual = 7.39616e-05, No Iterations 2
bounding k, min: 0 max: 4.09384 average: 0.29678
ExecutionTime = 5.29 s  ClockTime = 12 s

Time = 55

DILUPBiCGStab:  Solving for Ux, Initial residual = 0.0015904, Final residual = 1.52248e-05, No Iterations 3
DILUPBiCGStab:  Solving for Uy, Initial residual = 0.585355, Final residual = 0.00363563, No Iterations 4
DILUPBiCGStab:  Solving for Uz, Initial residual = 0.243885, Final residual = 0.0012658, No Iterations 4
Pressure gradient source: uncorrected Ubar = 39.0697, pressure gradient = 3599.6
GAMG:  Solving for p, Initial residual = 0.419167, Final residual = 0.037878, No Iterations 8
time step continuity errors : sum local = 1.68832e-13, global = -2.22859e-14, cumulative = -2.16711e-12
Pressure gradient source: uncorrected Ubar = 39.0746, pressure gradient = 2844.08
DILUPBiCGStab:  Solving for omega, Initial residual = 1.20525e-07, Final residual = 4.79432e-10, No Iterations 2
DILUPBiCGStab:  Solving for k, Initial residual = 0.0100051, Final residual = 7.1163e-05, No Iterations 2
bounding k, min: 0 max: 4.40276 average: 0.330905
ExecutionTime = 5.4 s  ClockTime = 12 s

Time = 56

DILUPBiCGStab:  Solving for Ux, Initial residual = 0.00153762, Final residual = 1.40551e-05, No Iterations 3
DILUPBiCGStab:  Solving for Uy, Initial residual = 0.597245, Final residual = 0.0028575, No Iterations 4
DILUPBiCGStab:  Solving for Uz, Initial residual = 0.470549, Final residual = 0.00264602, No Iterations 4
Pressure gradient source: uncorrected Ubar = 39.0699, pressure gradient = 3641.73
GAMG:  Solving for p, Initial residual = 0.39996, Final residual = 0.0317538, No Iterations 9
time step continuity errors : sum local = 1.58776e-13, global = -4.40924e-14, cumulative = -2.21121e-12
Pressure gradient source: uncorrected Ubar = 39.0746, pressure gradient = 2905.85
DILUPBiCGStab:  Solving for omega, Initial residual = 1.1722e-07, Final residual = 4.67139e-10, No Iterations 2
DILUPBiCGStab:  Solving for k, Initial residual = 0.0094833, Final residual = 6.79111e-05, No Iterations 2
bounding k, min: 0 max: 4.70106 average: 0.366733
ExecutionTime = 5.5 s  ClockTime = 12 s

Time = 57

DILUPBiCGStab:  Solving for Ux, Initial residual = 0.00148539, Final residual = 1.29024e-05, No Iterations 3
DILUPBiCGStab:  Solving for Uy, Initial residual = 0.586856, Final residual = 0.00275462, No Iterations 4
DILUPBiCGStab:  Solving for Uz, Initial residual = 0.514294, Final residual = 0.00259801, No Iterations 4
Pressure gradient source: uncorrected Ubar = 39.0701, pressure gradient = 3686.14
GAMG:  Solving for p, Initial residual = 0.416892, Final residual = 0.0318402, No Iterations 5
time step continuity errors : sum local = 2.07008e-13, global = -5.2394e-14, cumulative = -2.2636e-12
Pressure gradient source: uncorrected Ubar = 39.0746, pressure gradient = 2969.03
DILUPBiCGStab:  Solving for omega, Initial residual = 1.13978e-07, Final residual = 4.53474e-10, No Iterations 2
DILUPBiCGStab:  Solving for k, Initial residual = 0.00899456, Final residual = 6.4921e-05, No Iterations 2
bounding k, min: 0 max: 4.99191 average: 0.404124
ExecutionTime = 5.59 s  ClockTime = 12 s

Time = 58

DILUPBiCGStab:  Solving for Ux, Initial residual = 0.00143383, Final residual = 1.17451e-05, No Iterations 3
DILUPBiCGStab:  Solving for Uy, Initial residual = 0.494822, Final residual = 0.00254866, No Iterations 4
DILUPBiCGStab:  Solving for Uz, Initial residual = 0.550999, Final residual = 0.00542508, No Iterations 3
Pressure gradient source: uncorrected Ubar = 39.0704, pressure gradient = 3727.27
GAMG:  Solving for p, Initial residual = 0.425491, Final residual = 0.0337647, No Iterations 7
time step continuity errors : sum local = 2.54632e-13, global = -8.8064e-14, cumulative = -2.35166e-12
Pressure gradient source: uncorrected Ubar = 39.0746, pressure gradient = 3033.04
DILUPBiCGStab:  Solving for omega, Initial residual = 1.1081e-07, Final residual = 4.37569e-10, No Iterations 2
DILUPBiCGStab:  Solving for k, Initial residual = 0.00853327, Final residual = 6.16917e-05, No Iterations 2
bounding k, min: 0 max: 5.27645 average: 0.44293
ExecutionTime = 5.69 s  ClockTime = 12 s

Time = 59

DILUPBiCGStab:  Solving for Ux, Initial residual = 0.00138315, Final residual = 1.06392e-05, No Iterations 3
DILUPBiCGStab:  Solving for Uy, Initial residual = 0.601959, Final residual = 0.00466949, No Iterations 3
DILUPBiCGStab:  Solving for Uz, Initial residual = 0.425707, Final residual = 0.00394233, No Iterations 3
Pressure gradient source: uncorrected Ubar = 39.0706, pressure gradient = 3770.56
GAMG:  Solving for p, Initial residual = 0.404123, Final residual = 0.029474, No Iterations 6
time step continuity errors : sum local = 2.64414e-13, global = -1.06882e-13, cumulative = -2.45855e-12
Pressure gradient source: uncorrected Ubar = 39.0746, pressure gradient = 3098.05
DILUPBiCGStab:  Solving for omega, Initial residual = 1.0786e-07, Final residual = 4.20754e-10, No Iterations 2
DILUPBiCGStab:  Solving for k, Initial residual = 0.00811526, Final residual = 5.89456e-05, No Iterations 2
bounding k, min: 0 max: 5.55713 average: 0.483054
ExecutionTime = 5.79 s  ClockTime = 12 s

Time = 60

DILUPBiCGStab:  Solving for Ux, Initial residual = 0.0013334, Final residual = 9.59831e-06, No Iterations 3
DILUPBiCGStab:  Solving for Uy, Initial residual = 0.522881, Final residual = 0.00457343, No Iterations 3
DILUPBiCGStab:  Solving for Uz, Initial residual = 0.381521, Final residual = 0.00300194, No Iterations 3
Pressure gradient source: uncorrected Ubar = 39.0708, pressure gradient = 3810.19
GAMG:  Solving for p, Initial residual = 0.378363, Final residual = 0.0362423, No Iterations 6
time step continuity errors : sum local = 2.21755e-13, global = -7.05471e-14, cumulative = -2.52909e-12
Pressure gradient source: uncorrected Ubar = 39.0746, pressure gradient = 3163.47
DILUPBiCGStab:  Solving for omega, Initial residual = 1.04934e-07, Final residual = 4.01956e-10, No Iterations 2
DILUPBiCGStab:  Solving for k, Initial residual = 0.00772798, Final residual = 5.61937e-05, No Iterations 2
bounding k, min: 0 max: 5.83325 average: 0.524382
ExecutionTime = 5.88 s  ClockTime = 12 s

Time = 61

DILUPBiCGStab:  Solving for Ux, Initial residual = 0.00128458, Final residual = 8.69102e-06, No Iterations 3
DILUPBiCGStab:  Solving for Uy, Initial residual = 0.578139, Final residual = 0.0055185, No Iterations 3
DILUPBiCGStab:  Solving for Uz, Initial residual = 0.20759, Final residual = 0.00172636, No Iterations 3
Pressure gradient source: uncorrected Ubar = 39.0711, pressure gradient = 3848.82
GAMG:  Solving for p, Initial residual = 0.400838, Final residual = 0.0388145, No Iterations 4
time step continuity errors : sum local = 2.48451e-13, global = -6.89398e-14, cumulative = -2.59803e-12
Pressure gradient source: uncorrected Ubar = 39.0746, pressure gradient = 3229.01
DILUPBiCGStab:  Solving for omega, Initial residual = 1.02167e-07, Final residual = 3.83151e-10, No Iterations 2
DILUPBiCGStab:  Solving for k, Initial residual = 0.00737229, Final residual = 5.34746e-05, No Iterations 2
bounding k, min: 0 max: 6.1057 average: 0.566815
ExecutionTime = 5.98 s  ClockTime = 12 s

Time = 62

DILUPBiCGStab:  Solving for Ux, Initial residual = 0.0012381, Final residual = 7.92804e-06, No Iterations 3
DILUPBiCGStab:  Solving for Uy, Initial residual = 0.542508, Final residual = 0.00449844, No Iterations 3
DILUPBiCGStab:  Solving for Uz, Initial residual = 0.233724, Final residual = 0.00187717, No Iterations 3
Pressure gradient source: uncorrected Ubar = 39.0713, pressure gradient = 3889.2
GAMG:  Solving for p, Initial residual = 0.394668, Final residual = 0.0353773, No Iterations 5
time step continuity errors : sum local = 1.72195e-13, global = -4.1755e-14, cumulative = -2.63979e-12
Pressure gradient source: uncorrected Ubar = 39.0746, pressure gradient = 3294.74
DILUPBiCGStab:  Solving for omega, Initial residual = 9.94692e-08, Final residual = 3.64327e-10, No Iterations 2
DILUPBiCGStab:  Solving for k, Initial residual = 0.00704881, Final residual = 5.08431e-05, No Iterations 2
bounding k, min: 0 max: 6.37495 average: 0.610278
ExecutionTime = 6.07 s  ClockTime = 12 s

Time = 63

DILUPBiCGStab:  Solving for Ux, Initial residual = 0.00119416, Final residual = 7.30878e-06, No Iterations 3
DILUPBiCGStab:  Solving for Uy, Initial residual = 0.493424, Final residual = 0.00326591, No Iterations 3
DILUPBiCGStab:  Solving for Uz, Initial residual = 0.382529, Final residual = 0.00261332, No Iterations 3
Pressure gradient source: uncorrected Ubar = 39.0716, pressure gradient = 3928.34
GAMG:  Solving for p, Initial residual = 0.361452, Final residual = 0.0317753, No Iterations 6
time step continuity errors : sum local = 2.63993e-13, global = -1.05456e-13, cumulative = -2.74524e-12
Pressure gradient source: uncorrected Ubar = 39.0746, pressure gradient = 3360.35
DILUPBiCGStab:  Solving for omega, Initial residual = 9.69575e-08, Final residual = 3.44289e-10, No Iterations 2
DILUPBiCGStab:  Solving for k, Initial residual = 0.00674687, Final residual = 4.82538e-05, No Iterations 2
bounding k, min: 0 max: 6.64077 average: 0.654673
ExecutionTime = 6.16 s  ClockTime = 12 s

Time = 64

DILUPBiCGStab:  Solving for Ux, Initial residual = 0.00115212, Final residual = 6.81348e-06, No Iterations 3
DILUPBiCGStab:  Solving for Uy, Initial residual = 0.527375, Final residual = 0.00374822, No Iterations 3
DILUPBiCGStab:  Solving for Uz, Initial residual = 0.44032, Final residual = 0.00308584, No Iterations 3
Pressure gradient source: uncorrected Ubar = 39.0718, pressure gradient = 3968.8
GAMG:  Solving for p, Initial residual = 0.40159, Final residual = 0.0334145, No Iterations 5
time step continuity errors : sum local = 3.91965e-13, global = -2.2009e-13, cumulative = -2.96533e-12
Pressure gradient source: uncorrected Ubar = 39.0747, pressure gradient = 3425.8
DILUPBiCGStab:  Solving for omega, Initial residual = 9.45974e-08, Final residual = 3.24806e-10, No Iterations 2
DILUPBiCGStab:  Solving for k, Initial residual = 0.0064688, Final residual = 4.56932e-05, No Iterations 2
bounding k, min: 0 max: 6.90322 average: 0.699924
ExecutionTime = 6.25 s  ClockTime = 13 s

Time = 65

DILUPBiCGStab:  Solving for Ux, Initial residual = 0.00111381, Final residual = 6.40336e-06, No Iterations 3
DILUPBiCGStab:  Solving for Uy, Initial residual = 0.548119, Final residual = 0.00420781, No Iterations 3
DILUPBiCGStab:  Solving for Uz, Initial residual = 0.488176, Final residual = 0.0026195, No Iterations 4
Pressure gradient source: uncorrected Ubar = 39.072, pressure gradient = 4010.35
GAMG:  Solving for p, Initial residual = 0.40157, Final residual = 0.0268312, No Iterations 5
time step continuity errors : sum local = 2.74729e-13, global = -1.37254e-13, cumulative = -3.10259e-12
Pressure gradient source: uncorrected Ubar = 39.0747, pressure gradient = 3490.96
DILUPBiCGStab:  Solving for omega, Initial residual = 9.23177e-08, Final residual = 3.05778e-10, No Iterations 2
DILUPBiCGStab:  Solving for k, Initial residual = 0.00621178, Final residual = 4.31625e-05, No Iterations 2
bounding k, min: 0 max: 7.16242 average: 0.745962
ExecutionTime = 6.35 s  ClockTime = 13 s

Time = 66

DILUPBiCGStab:  Solving for Ux, Initial residual = 0.00107934, Final residual = 6.06053e-06, No Iterations 3
DILUPBiCGStab:  Solving for Uy, Initial residual = 0.653329, Final residual = 0.00450094, No Iterations 3
DILUPBiCGStab:  Solving for Uz, Initial residual = 0.312282, Final residual = 0.00208549, No Iterations 3
Pressure gradient source: uncorrected Ubar = 39.0721, pressure gradient = 4053.41
GAMG:  Solving for p, Initial residual = 0.420259, Final residual = 0.0374341, No Iterations 8
time step continuity errors : sum local = 1.89111e-13, global = -4.93193e-14, cumulative = -3.15191e-12
Pressure gradient source: uncorrected Ubar = 39.0747, pressure gradient = 3555.82
DILUPBiCGStab:  Solving for omega, Initial residual = 9.02012e-08, Final residual = 2.86112e-10, No Iterations 2
DILUPBiCGStab:  Solving for k, Initial residual = 0.0059686, Final residual = 4.06904e-05, No Iterations 2
bounding k, min: 0 max: 7.41813 average: 0.792697
ExecutionTime = 6.46 s  ClockTime = 13 s

Time = 67

DILUPBiCGStab:  Solving for Ux, Initial residual = 0.00104877, Final residual = 5.7868e-06, No Iterations 3
DILUPBiCGStab:  Solving for Uy, Initial residual = 0.663346, Final residual = 0.00339634, No Iterations 3
DILUPBiCGStab:  Solving for Uz, Initial residual = 0.396828, Final residual = 0.00386297, No Iterations 3
Pressure gradient source: uncorrected Ubar = 39.0723, pressure gradient = 4099.18
GAMG:  Solving for p, Initial residual = 0.377392, Final residual = 0.0346296, No Iterations 5
time step continuity errors : sum local = 1.78432e-13, global = 4.4537e-15, cumulative = -3.14745e-12
Pressure gradient source: uncorrected Ubar = 39.0747, pressure gradient = 3620.53
DILUPBiCGStab:  Solving for omega, Initial residual = 8.82031e-08, Final residual = 8.19265e-10, No Iterations 2
DILUPBiCGStab:  Solving for k, Initial residual = 0.00574249, Final residual = 3.83169e-05, No Iterations 2
bounding k, min: 0 max: 7.67044 average: 0.840062
ExecutionTime = 6.56 s  ClockTime = 13 s

Time = 68

DILUPBiCGStab:  Solving for Ux, Initial residual = 0.0010221, Final residual = 5.56437e-06, No Iterations 3
DILUPBiCGStab:  Solving for Uy, Initial residual = 0.458437, Final residual = 0.00216345, No Iterations 3
DILUPBiCGStab:  Solving for Uz, Initial residual = 0.567337, Final residual = 0.00475089, No Iterations 3
Pressure gradient source: uncorrected Ubar = 39.0725, pressure gradient = 4146.53
GAMG:  Solving for p, Initial residual = 0.392529, Final residual = 0.0341754, No Iterations 10
time step continuity errors : sum local = 2.29244e-13, global = -3.6032e-14, cumulative = -3.18348e-12
Pressure gradient source: uncorrected Ubar = 39.0747, pressure gradient = 3685.06
DILUPBiCGStab:  Solving for omega, Initial residual = 8.64503e-08, Final residual = 7.5005e-10, No Iterations 2
DILUPBiCGStab:  Solving for k, Initial residual = 0.00553268, Final residual = 3.60107e-05, No Iterations 2
bounding k, min: 0 max: 7.91949 average: 0.888002
ExecutionTime = 6.66 s  ClockTime = 13 s

Time = 69

DILUPBiCGStab:  Solving for Ux, Initial residual = 0.000999406, Final residual = 5.39882e-06, No Iterations 3
DILUPBiCGStab:  Solving for Uy, Initial residual = 0.512464, Final residual = 0.00312903, No Iterations 3
DILUPBiCGStab:  Solving for Uz, Initial residual = 0.441097, Final residual = 0.00271349, No Iterations 3
Pressure gradient source: uncorrected Ubar = 39.0726, pressure gradient = 4195.75
GAMG:  Solving for p, Initial residual = 0.373684, Final residual = 0.0312384, No Iterations 5
time step continuity errors : sum local = 1.91526e-13, global = -3.93241e-14, cumulative = -3.22281e-12
Pressure gradient source: uncorrected Ubar = 39.0747, pressure gradient = 3749.42
DILUPBiCGStab:  Solving for omega, Initial residual = 8.47809e-08, Final residual = 6.8554e-10, No Iterations 2
DILUPBiCGStab:  Solving for k, Initial residual = 0.0053364, Final residual = 3.37917e-05, No Iterations 2
bounding k, min: 0 max: 8.16526 average: 0.936458
ExecutionTime = 6.75 s  ClockTime = 13 s

Time = 70

DILUPBiCGStab:  Solving for Ux, Initial residual = 0.000980016, Final residual = 5.28015e-06, No Iterations 3
DILUPBiCGStab:  Solving for Uy, Initial residual = 0.555957, Final residual = 0.00229932, No Iterations 3
DILUPBiCGStab:  Solving for Uz, Initial residual = 0.480887, Final residual = 0.00283567, No Iterations 3
[...]
Pressure gradient source: uncorrected Ubar = 39.075, pressure gradient = 7332.31
GAMG:  Solving for p, Initial residual = 0.355139, Final residual = 0.0311242, No Iterations 7
time step continuity errors : sum local = 2.62124e-13, global = -7.54038e-14, cumulative = -2.22197e-10
Pressure gradient source: uncorrected Ubar = 39.075, pressure gradient = 7330.92
DILUPBiCGStab:  Solving for omega, Initial residual = 1.01636e-10, Final residual = 6.03959e-13, No Iterations 1
DILUPBiCGStab:  Solving for k, Initial residual = 3.1135e-06, Final residual = 8.16971e-09, No Iterations 2
bounding k, min: 0 max: 16.8104 average: 6.35576
ExecutionTime = 368.97 s  ClockTime = 375 s

Time = 3618

DILUPBiCGStab:  Solving for Ux, Initial residual = 6.56161e-06, Final residual = 2.86079e-08, No Iterations 2
DILUPBiCGStab:  Solving for Uy, Initial residual = 0.610226, Final residual = 0.0056561, No Iterations 2
DILUPBiCGStab:  Solving for Uz, Initial residual = 0.418596, Final residual = 0.00376438, No Iterations 2
Pressure gradient source: uncorrected Ubar = 39.075, pressure gradient = 7332.34
GAMG:  Solving for p, Initial residual = 0.373197, Final residual = 0.0371405, No Iterations 8
time step continuity errors : sum local = 3.4813e-13, global = -1.75818e-13, cumulative = -2.22373e-10
Pressure gradient source: uncorrected Ubar = 39.075, pressure gradient = 7330.95
DILUPBiCGStab:  Solving for omega, Initial residual = 1.01546e-10, Final residual = 6.0343e-13, No Iterations 1
DILUPBiCGStab:  Solving for k, Initial residual = 3.11059e-06, Final residual = 8.16244e-09, No Iterations 2
bounding k, min: 0 max: 16.8105 average: 6.35572
ExecutionTime = 369.07 s  ClockTime = 375 s

Time = 3619

DILUPBiCGStab:  Solving for Ux, Initial residual = 6.5557e-06, Final residual = 2.85824e-08, No Iterations 2
DILUPBiCGStab:  Solving for Uy, Initial residual = 0.608735, Final residual = 0.00587755, No Iterations 2
DILUPBiCGStab:  Solving for Uz, Initial residual = 0.372641, Final residual = 0.00342961, No Iterations 2
Pressure gradient source: uncorrected Ubar = 39.075, pressure gradient = 7332.37
GAMG:  Solving for p, Initial residual = 0.332805, Final residual = 0.0290264, No Iterations 9
time step continuity errors : sum local = 3.48046e-13, global = -1.873e-13, cumulative = -2.2256e-10
Pressure gradient source: uncorrected Ubar = 39.075, pressure gradient = 7330.98
DILUPBiCGStab:  Solving for omega, Initial residual = 1.01456e-10, Final residual = 6.02901e-13, No Iterations 1
DILUPBiCGStab:  Solving for k, Initial residual = 3.10769e-06, Final residual = 8.15518e-09, No Iterations 2
bounding k, min: 0 max: 16.8106 average: 6.35567
ExecutionTime = 369.16 s  ClockTime = 376 s

Time = 3620

DILUPBiCGStab:  Solving for Ux, Initial residual = 6.5498e-06, Final residual = 2.85568e-08, No Iterations 2
DILUPBiCGStab:  Solving for Uy, Initial residual = 0.591441, Final residual = 0.00532437, No Iterations 2
DILUPBiCGStab:  Solving for Uz, Initial residual = 0.347127, Final residual = 0.00310215, No Iterations 2
Pressure gradient source: uncorrected Ubar = 39.075, pressure gradient = 7332.39
GAMG:  Solving for p, Initial residual = 0.362158, Final residual = 0.0273053, No Iterations 8
time step continuity errors : sum local = 3.2159e-13, global = -1.74313e-13, cumulative = -2.22734e-10
Pressure gradient source: uncorrected Ubar = 39.075, pressure gradient = 7331.01
DILUPBiCGStab:  Solving for omega, Initial residual = 1.01366e-10, Final residual = 6.02373e-13, No Iterations 1
DILUPBiCGStab:  Solving for k, Initial residual = 3.1048e-06, Final residual = 8.14792e-09, No Iterations 2
bounding k, min: 0 max: 16.8107 average: 6.35563
ExecutionTime = 369.26 s  ClockTime = 376 s

Time = 3621

DILUPBiCGStab:  Solving for Ux, Initial residual = 6.5439e-06, Final residual = 2.85313e-08, No Iterations 2
DILUPBiCGStab:  Solving for Uy, Initial residual = 0.570795, Final residual = 0.00437271, No Iterations 2
DILUPBiCGStab:  Solving for Uz, Initial residual = 0.365641, Final residual = 0.00311311, No Iterations 2
Pressure gradient source: uncorrected Ubar = 39.075, pressure gradient = 7332.42
GAMG:  Solving for p, Initial residual = 0.367684, Final residual = 0.0327067, No Iterations 9
time step continuity errors : sum local = 1.66951e-13, global = -2.4889e-14, cumulative = -2.22759e-10
Pressure gradient source: uncorrected Ubar = 39.075, pressure gradient = 7331.04
DILUPBiCGStab:  Solving for omega, Initial residual = 1.01277e-10, Final residual = 6.01845e-13, No Iterations 1
DILUPBiCGStab:  Solving for k, Initial residual = 3.1019e-06, Final residual = 8.14067e-09, No Iterations 2
bounding k, min: 0 max: 16.8108 average: 6.35559
ExecutionTime = 369.36 s  ClockTime = 376 s

Time = 3622

DILUPBiCGStab:  Solving for Ux, Initial residual = 6.53801e-06, Final residual = 2.85058e-08, No Iterations 2
DILUPBiCGStab:  Solving for Uy, Initial residual = 0.6263, Final residual = 0.00189645, No Iterations 3
DILUPBiCGStab:  Solving for Uz, Initial residual = 0.67232, Final residual = 0.00201876, No Iterations 3
Pressure gradient source: uncorrected Ubar = 39.075, pressure gradient = 7332.45
GAMG:  Solving for p, Initial residual = 0.374459, Final residual = 0.0246086, No Iterations 5
time step continuity errors : sum local = 2.72232e-13, global = 1.51493e-13, cumulative = -2.22608e-10
Pressure gradient source: uncorrected Ubar = 39.075, pressure gradient = 7331.07
DILUPBiCGStab:  Solving for omega, Initial residual = 1.01187e-10, Final residual = 6.01318e-13, No Iterations 1
DILUPBiCGStab:  Solving for k, Initial residual = 3.09901e-06, Final residual = 8.13343e-09, No Iterations 2
bounding k, min: 0 max: 16.8109 average: 6.35554
ExecutionTime = 369.44 s  ClockTime = 376 s

Time = 3623

DILUPBiCGStab:  Solving for Ux, Initial residual = 6.53213e-06, Final residual = 2.84803e-08, No Iterations 2
DILUPBiCGStab:  Solving for Uy, Initial residual = 0.657045, Final residual = 0.00603031, No Iterations 2
DILUPBiCGStab:  Solving for Uz, Initial residual = 0.407958, Final residual = 0.00127587, No Iterations 3
Pressure gradient source: uncorrected Ubar = 39.075, pressure gradient = 7332.48
GAMG:  Solving for p, Initial residual = 0.386287, Final residual = 0.035027, No Iterations 11
time step continuity errors : sum local = 3.02816e-13, global = 1.14776e-13, cumulative = -2.22493e-10
Pressure gradient source: uncorrected Ubar = 39.075, pressure gradient = 7331.1
DILUPBiCGStab:  Solving for omega, Initial residual = 1.01098e-10, Final residual = 6.00792e-13, No Iterations 1
DILUPBiCGStab:  Solving for k, Initial residual = 3.09612e-06, Final residual = 8.1262e-09, No Iterations 2
bounding k, min: 0 max: 16.811 average: 6.3555
ExecutionTime = 369.55 s  ClockTime = 376 s

Time = 3624

DILUPBiCGStab:  Solving for Ux, Initial residual = 6.52625e-06, Final residual = 2.84549e-08, No Iterations 2
DILUPBiCGStab:  Solving for Uy, Initial residual = 0.640155, Final residual = 0.00459709, No Iterations 2
DILUPBiCGStab:  Solving for Uz, Initial residual = 0.432527, Final residual = 0.00427317, No Iterations 2
Pressure gradient source: uncorrected Ubar = 39.075, pressure gradient = 7332.51
GAMG:  Solving for p, Initial residual = 0.378648, Final residual = 0.0342508, No Iterations 7
time step continuity errors : sum local = 2.25817e-13, global = -2.07305e-14, cumulative = -2.22513e-10
Pressure gradient source: uncorrected Ubar = 39.075, pressure gradient = 7331.13
DILUPBiCGStab:  Solving for omega, Initial residual = 1.01008e-10, Final residual = 6.00266e-13, No Iterations 1
DILUPBiCGStab:  Solving for k, Initial residual = 3.09324e-06, Final residual = 8.11897e-09, No Iterations 2
bounding k, min: 0 max: 16.8111 average: 6.35545
ExecutionTime = 369.64 s  ClockTime = 376 s

Time = 3625

DILUPBiCGStab:  Solving for Ux, Initial residual = 6.52037e-06, Final residual = 2.84295e-08, No Iterations 2
DILUPBiCGStab:  Solving for Uy, Initial residual = 0.508575, Final residual = 0.00142904, No Iterations 3
DILUPBiCGStab:  Solving for Uz, Initial residual = 0.734059, Final residual = 0.00226396, No Iterations 3
Pressure gradient source: uncorrected Ubar = 39.075, pressure gradient = 7332.54
GAMG:  Solving for p, Initial residual = 0.360306, Final residual = 0.0341758, No Iterations 10
time step continuity errors : sum local = 2.97769e-13, global = -9.99884e-14, cumulative = -2.22613e-10
Pressure gradient source: uncorrected Ubar = 39.075, pressure gradient = 7331.16
DILUPBiCGStab:  Solving for omega, Initial residual = 1.00919e-10, Final residual = 5.9974e-13, No Iterations 1
DILUPBiCGStab:  Solving for k, Initial residual = 3.09035e-06, Final residual = 8.11175e-09, No Iterations 2
bounding k, min: 0 max: 16.8112 average: 6.35541
ExecutionTime = 369.73 s  ClockTime = 376 s

Time = 3626

DILUPBiCGStab:  Solving for Ux, Initial residual = 6.51451e-06, Final residual = 2.84041e-08, No Iterations 2
DILUPBiCGStab:  Solving for Uy, Initial residual = 0.617597, Final residual = 0.00217275, No Iterations 3
DILUPBiCGStab:  Solving for Uz, Initial residual = 0.396774, Final residual = 0.00108936, No Iterations 3
Pressure gradient source: uncorrected Ubar = 39.075, pressure gradient = 7332.57
GAMG:  Solving for p, Initial residual = 0.381709, Final residual = 0.0348583, No Iterations 7
time step continuity errors : sum local = 3.07913e-13, global = -1.21115e-13, cumulative = -2.22735e-10
Pressure gradient source: uncorrected Ubar = 39.075, pressure gradient = 7331.19
DILUPBiCGStab:  Solving for omega, Initial residual = 1.0083e-10, Final residual = 5.99215e-13, No Iterations 1
DILUPBiCGStab:  Solving for k, Initial residual = 3.08748e-06, Final residual = 8.10453e-09, No Iterations 2
bounding k, min: 0 max: 16.8113 average: 6.35537
ExecutionTime = 369.83 s  ClockTime = 376 s

Time = 3627

DILUPBiCGStab:  Solving for Ux, Initial residual = 6.50864e-06, Final residual = 2.83787e-08, No Iterations 2
DILUPBiCGStab:  Solving for Uy, Initial residual = 0.624425, Final residual = 0.00621306, No Iterations 2
DILUPBiCGStab:  Solving for Uz, Initial residual = 0.302183, Final residual = 0.00268385, No Iterations 2
Pressure gradient source: uncorrected Ubar = 39.075, pressure gradient = 7332.6
GAMG:  Solving for p, Initial residual = 0.373304, Final residual = 0.0370753, No Iterations 8
time step continuity errors : sum local = 2.91424e-13, global = -9.0941e-14, cumulative = -2.22826e-10
Pressure gradient source: uncorrected Ubar = 39.075, pressure gradient = 7331.22
DILUPBiCGStab:  Solving for omega, Initial residual = 1.00741e-10, Final residual = 5.9869e-13, No Iterations 1
DILUPBiCGStab:  Solving for k, Initial residual = 3.0846e-06, Final residual = 8.09733e-09, No Iterations 2
bounding k, min: 0 max: 16.8114 average: 6.35532
ExecutionTime = 369.92 s  ClockTime = 376 s

Time = 3628

DILUPBiCGStab:  Solving for Ux, Initial residual = 6.50279e-06, Final residual = 2.83534e-08, No Iterations 2
DILUPBiCGStab:  Solving for Uy, Initial residual = 0.553578, Final residual = 0.00192158, No Iterations 3
DILUPBiCGStab:  Solving for Uz, Initial residual = 0.394704, Final residual = 0.00342267, No Iterations 2
Pressure gradient source: uncorrected Ubar = 39.075, pressure gradient = 7332.62
GAMG:  Solving for p, Initial residual = 0.388069, Final residual = 0.0323121, No Iterations 8
time step continuity errors : sum local = 1.66267e-13, global = -9.48082e-15, cumulative = -2.22835e-10
Pressure gradient source: uncorrected Ubar = 39.075, pressure gradient = 7331.25
DILUPBiCGStab:  Solving for omega, Initial residual = 1.00651e-10, Final residual = 5.98166e-13, No Iterations 1
DILUPBiCGStab:  Solving for k, Initial residual = 3.08173e-06, Final residual = 8.09014e-09, No Iterations 2
bounding k, min: 0 max: 16.8114 average: 6.35528
ExecutionTime = 370.02 s  ClockTime = 376 s

Time = 3629

DILUPBiCGStab:  Solving for Ux, Initial residual = 6.49693e-06, Final residual = 2.8328e-08, No Iterations 2
DILUPBiCGStab:  Solving for Uy, Initial residual = 0.608338, Final residual = 0.00167425, No Iterations 3
DILUPBiCGStab:  Solving for Uz, Initial residual = 0.585861, Final residual = 0.00175259, No Iterations 3
Pressure gradient source: uncorrected Ubar = 39.075, pressure gradient = 7332.65
GAMG:  Solving for p, Initial residual = 0.350587, Final residual = 0.032681, No Iterations 10
time step continuity errors : sum local = 2.64539e-13, global = -8.04208e-14, cumulative = -2.22915e-10
Pressure gradient source: uncorrected Ubar = 39.075, pressure gradient = 7331.28
DILUPBiCGStab:  Solving for omega, Initial residual = 1.00562e-10, Final residual = 5.97643e-13, No Iterations 1
DILUPBiCGStab:  Solving for k, Initial residual = 3.07886e-06, Final residual = 8.08295e-09, No Iterations 2
bounding k, min: 0 max: 16.8115 average: 6.35524
ExecutionTime = 370.12 s  ClockTime = 377 s

Time = 3630

DILUPBiCGStab:  Solving for Ux, Initial residual = 6.49109e-06, Final residual = 2.83027e-08, No Iterations 2
DILUPBiCGStab:  Solving for Uy, Initial residual = 0.69969, Final residual = 0.00197114, No Iterations 3
DILUPBiCGStab:  Solving for Uz, Initial residual = 0.582621, Final residual = 0.00531078, No Iterations 2
Pressure gradient source: uncorrected Ubar = 39.075, pressure gradient = 7332.68
GAMG:  Solving for p, Initial residual = 0.38415, Final residual = 0.0316961, No Iterations 7
time step continuity errors : sum local = 1.65979e-13, global = -3.04439e-14, cumulative = -2.22946e-10
Pressure gradient source: uncorrected Ubar = 39.075, pressure gradient = 7331.31
DILUPBiCGStab:  Solving for omega, Initial residual = 1.00474e-10, Final residual = 5.9712e-13, No Iterations 1
DILUPBiCGStab:  Solving for k, Initial residual = 3.07599e-06, Final residual = 8.07577e-09, No Iterations 2
bounding k, min: 0 max: 16.8116 average: 6.35519
ExecutionTime = 370.21 s  ClockTime = 377 s

Time = 3631

DILUPBiCGStab:  Solving for Ux, Initial residual = 6.48525e-06, Final residual = 2.82775e-08, No Iterations 2
DILUPBiCGStab:  Solving for Uy, Initial residual = 0.600144, Final residual = 0.00184854, No Iterations 3
DILUPBiCGStab:  Solving for Uz, Initial residual = 0.408411, Final residual = 0.00374551, No Iterations 2
Pressure gradient source: uncorrected Ubar = 39.075, pressure gradient = 7332.71
GAMG:  Solving for p, Initial residual = 0.375597, Final residual = 0.0375586, No Iterations 7
time step continuity errors : sum local = 2.48987e-13, global = -6.89995e-14, cumulative = -2.23015e-10
Pressure gradient source: uncorrected Ubar = 39.075, pressure gradient = 7331.34
DILUPBiCGStab:  Solving for omega, Initial residual = 1.00385e-10, Final residual = 5.96597e-13, No Iterations 1
DILUPBiCGStab:  Solving for k, Initial residual = 3.07313e-06, Final residual = 8.0686e-09, No Iterations 2
bounding k, min: 0 max: 16.8117 average: 6.35515
ExecutionTime = 370.3 s  ClockTime = 377 s

Time = 3632

DILUPBiCGStab:  Solving for Ux, Initial residual = 6.47941e-06, Final residual = 2.82522e-08, No Iterations 2
DILUPBiCGStab:  Solving for Uy, Initial residual = 0.693151, Final residual = 0.00646418, No Iterations 2
DILUPBiCGStab:  Solving for Uz, Initial residual = 0.553637, Final residual = 0.00525888, No Iterations 2
Pressure gradient source: uncorrected Ubar = 39.075, pressure gradient = 7332.74
GAMG:  Solving for p, Initial residual = 0.335047, Final residual = 0.0303363, No Iterations 7
time step continuity errors : sum local = 2.53261e-13, global = -8.51232e-14, cumulative = -2.231e-10
Pressure gradient source: uncorrected Ubar = 39.075, pressure gradient = 7331.37
DILUPBiCGStab:  Solving for omega, Initial residual = 1.00296e-10, Final residual = 5.96075e-13, No Iterations 1
DILUPBiCGStab:  Solving for k, Initial residual = 3.07027e-06, Final residual = 8.06143e-09, No Iterations 2
bounding k, min: 0 max: 16.8118 average: 6.35511
ExecutionTime = 370.4 s  ClockTime = 377 s

Time = 3633

DILUPBiCGStab:  Solving for Ux, Initial residual = 6.47358e-06, Final residual = 2.8227e-08, No Iterations 2
DILUPBiCGStab:  Solving for Uy, Initial residual = 0.584493, Final residual = 0.00477187, No Iterations 2
DILUPBiCGStab:  Solving for Uz, Initial residual = 0.438609, Final residual = 0.00106223, No Iterations 3
Pressure gradient source: uncorrected Ubar = 39.075, pressure gradient = 7332.77
GAMG:  Solving for p, Initial residual = 0.327308, Final residual = 0.0242331, No Iterations 6
time step continuity errors : sum local = 2.19515e-13, global = -8.88974e-14, cumulative = -2.23189e-10
Pressure gradient source: uncorrected Ubar = 39.075, pressure gradient = 7331.4
DILUPBiCGStab:  Solving for omega, Initial residual = 1.00207e-10, Final residual = 5.95554e-13, No Iterations 1
DILUPBiCGStab:  Solving for k, Initial residual = 3.06741e-06, Final residual = 8.05427e-09, No Iterations 2
bounding k, min: 0 max: 16.8119 average: 6.35507
ExecutionTime = 370.49 s  ClockTime = 377 s

Time = 3634

DILUPBiCGStab:  Solving for Ux, Initial residual = 6.46776e-06, Final residual = 2.82018e-08, No Iterations 2
DILUPBiCGStab:  Solving for Uy, Initial residual = 0.595687, Final residual = 0.00466307, No Iterations 2
DILUPBiCGStab:  Solving for Uz, Initial residual = 0.354085, Final residual = 0.00329764, No Iterations 2
Pressure gradient source: uncorrected Ubar = 39.075, pressure gradient = 7332.8
GAMG:  Solving for p, Initial residual = 0.360385, Final residual = 0.031546, No Iterations 7
time step continuity errors : sum local = 2.84668e-13, global = -1.19874e-13, cumulative = -2.23309e-10
Pressure gradient source: uncorrected Ubar = 39.075, pressure gradient = 7331.43
DILUPBiCGStab:  Solving for omega, Initial residual = 1.00119e-10, Final residual = 5.95033e-13, No Iterations 1
DILUPBiCGStab:  Solving for k, Initial residual = 3.06455e-06, Final residual = 8.04711e-09, No Iterations 2
bounding k, min: 0 max: 16.812 average: 6.35502
ExecutionTime = 370.58 s  ClockTime = 377 s

Time = 3635

DILUPBiCGStab:  Solving for Ux, Initial residual = 6.46194e-06, Final residual = 2.81767e-08, No Iterations 2
DILUPBiCGStab:  Solving for Uy, Initial residual = 0.609587, Final residual = 0.00173736, No Iterations 3
DILUPBiCGStab:  Solving for Uz, Initial residual = 0.360076, Final residual = 0.00340898, No Iterations 2
Pressure gradient source: uncorrected Ubar = 39.075, pressure gradient = 7332.82
GAMG:  Solving for p, Initial residual = 0.354384, Final residual = 0.0353781, No Iterations 6
time step continuity errors : sum local = 2.64375e-13, global = -1.16227e-13, cumulative = -2.23425e-10
Pressure gradient source: uncorrected Ubar = 39.075, pressure gradient = 7331.46
DILUPBiCGStab:  Solving for omega, Initial residual = 1.0003e-10, Final residual = 5.94513e-13, No Iterations 1
DILUPBiCGStab:  Solving for k, Initial residual = 3.0617e-06, Final residual = 8.03997e-09, No Iterations 2
bounding k, min: 0 max: 16.8121 average: 6.35498
ExecutionTime = 370.67 s  ClockTime = 377 s

Time = 3636

DILUPBiCGStab:  Solving for Ux, Initial residual = 6.45612e-06, Final residual = 2.81515e-08, No Iterations 2
DILUPBiCGStab:  Solving for Uy, Initial residual = 0.500226, Final residual = 0.00166388, No Iterations 3
DILUPBiCGStab:  Solving for Uz, Initial residual = 0.342657, Final residual = 0.00309716, No Iterations 2
Pressure gradient source: uncorrected Ubar = 39.075, pressure gradient = 7332.85
GAMG:  Solving for p, Initial residual = 0.324604, Final residual = 0.0280816, No Iterations 5
time step continuity errors : sum local = 1.95122e-13, global = -6.06674e-14, cumulative = -2.23486e-10
Pressure gradient source: uncorrected Ubar = 39.075, pressure gradient = 7331.49
DILUPBiCGStab:  Solving for omega, Initial residual = 9.99419e-11, Final residual = 5.93993e-13, No Iterations 1
DILUPBiCGStab:  Solving for k, Initial residual = 3.05885e-06, Final residual = 8.03283e-09, No Iterations 2
bounding k, min: 0 max: 16.8122 average: 6.35494
ExecutionTime = 370.76 s  ClockTime = 377 s


SIMPLE solution converged in 3636 iterations

End

