/*---------------------------------------------------------------------------*\
  =========                 |
  \\      /  F ield         | OpenFOAM: The Open Source CFD Toolbox
   \\    /   O peration     | Website:  https://openfoam.org
    \\  /    A nd           | Version:  7
     \\/     M anipulation  |
\*---------------------------------------------------------------------------*/
Build  : 7-3bcbaf946ae9
Exec   : simpleFoam -postProcess -funcs (writeCellVolumes singleGraphDiag wallShearStress wallValues) -latestTime
Date   : May 22 2023
Time   : 12:18:12
Host   : "kaj-HP-ZBook-Studio-G4"
PID    : 33202
I/O    : uncollated
Case   : /home/kaj/Documents/thesis/finalCases/rectDuct/AR_7_Ret_180/00Baseline/beta11
nProcs : 1
sigFpe : Enabling floating point exception trapping (FOAM_SIGFPE).
fileModificationChecking : Monitoring run-time modified files using timeStampMaster (fileModificationSkew 10)
allowSystemOperations : Allowing user-supplied system call operations

// * * * * * * * * * * * * * * * * * * * * * * * * * * * * * * * * * * * * * //
Create time

Using #calcEntry at line 4 in file "/home/kaj/Documents/thesis/finalCases/rectDuct/AR_7_Ret_180/00Baseline/beta11/system/controlDict.functions.convergenceProbes"
Using #codeStream with "/home/kaj/Documents/thesis/finalCases/rectDuct/AR_7_Ret_180/00Baseline/beta11/dynamicCode/platforms/linux64GccDPInt32Opt/lib/libcodeStream_e305d05308d1ade03f6eb88824101ddb2eba3278.so"
Using #calcEntry at line 5 in file "/home/kaj/Documents/thesis/finalCases/rectDuct/AR_7_Ret_180/00Baseline/beta11/system/controlDict.functions.convergenceProbes"
Using #codeStream with "/home/kaj/Documents/thesis/finalCases/rectDuct/AR_7_Ret_180/00Baseline/beta11/dynamicCode/platforms/linux64GccDPInt32Opt/lib/libcodeStream_8f3c4192690bcc53a34cf723aeeab9b62f638bd7.so"
Using #calcEntry at line 6 in file "/home/kaj/Documents/thesis/finalCases/rectDuct/AR_7_Ret_180/00Baseline/beta11/system/controlDict.functions.convergenceProbes"
Using #codeStream with "/home/kaj/Documents/thesis/finalCases/rectDuct/AR_7_Ret_180/00Baseline/beta11/dynamicCode/platforms/linux64GccDPInt32Opt/lib/libcodeStream_a2727cef0b180b3b2f6a19fffe5ff7cc3de40b59.so"
Using #calcEntry at line 7 in file "/home/kaj/Documents/thesis/finalCases/rectDuct/AR_7_Ret_180/00Baseline/beta11/system/controlDict.functions.convergenceProbes"
Using #codeStream with "/home/kaj/Documents/thesis/finalCases/rectDuct/AR_7_Ret_180/00Baseline/beta11/dynamicCode/platforms/linux64GccDPInt32Opt/lib/libcodeStream_4cfdc239927794397c7aae02eeafc7aa6edbc313.so"
Using #calcEntry at line 8 in file "/home/kaj/Documents/thesis/finalCases/rectDuct/AR_7_Ret_180/00Baseline/beta11/system/controlDict.functions.convergenceProbes"
Using #codeStream with "/home/kaj/Documents/thesis/finalCases/rectDuct/AR_7_Ret_180/00Baseline/beta11/dynamicCode/platforms/linux64GccDPInt32Opt/lib/libcodeStream_d847d0a0444687a8a569491287eb887fec5c91f6.so"
Using #calcEntry at line 9 in file "/home/kaj/Documents/thesis/finalCases/rectDuct/AR_7_Ret_180/00Baseline/beta11/system/controlDict.functions.convergenceProbes"
Using #codeStream with "/home/kaj/Documents/thesis/finalCases/rectDuct/AR_7_Ret_180/00Baseline/beta11/dynamicCode/platforms/linux64GccDPInt32Opt/lib/libcodeStream_35545c138b51aa016cb1c13b3b938663ba1f3866.so"
Create mesh for time = 3636


SIMPLE: Convergence criteria found
        k: tolerance 5e-06
        omega: tolerance 1e-10

Time = 3636
Reading field p

Reading field U

Reading/calculating face flux field phi

Selecting incompressible transport model Newtonian
Selecting turbulence model type RAS
Selecting RAS turbulence model kOmegaSST
Selecting patchDistMethod meshWave
bounding k, min: 0 max: 16.8122 average: 6.35494
RAS
{
    RASModel        kOmegaSST;
    turbulence      on;
    printCoeffs     on;
    alphaK1         0.85;
    alphaK2         1;
    alphaOmega1     0.5;
    alphaOmega2     0.856;
    gamma1          0.555556;
    gamma2          0.44;
    beta1           0.075;
    beta2           0.0828;
    betaStar        0.09;
    a1              0.31;
    b1              1;
    c1              10;
    F3              false;
}

No MRF models present

Creating finite volume options from "system/fvOptions"

Using #calcEntry at line 20 in file "/home/kaj/Documents/thesis/finalCases/rectDuct/AR_7_Ret_180/00Baseline/beta11/system/fvOptions"
Using #codeStream with "/home/kaj/Documents/thesis/finalCases/rectDuct/AR_7_Ret_180/00Baseline/beta11/dynamicCode/platforms/linux64GccDPInt32Opt/lib/libcodeStream_3f3bee1f93bf60dbca6adf1f636db0e337e92709.so"
Selecting finite volume options model type meanVelocityForce
    Source: meanVelocity1
    - selecting all cells
    - selected 15463 cell(s) with volume 7e-09
    Initial pressure gradient = 0

Using #calcEntry at line 17 in file "controlDict.functions.singleGraphDiag"
Using #codeStream with "/home/kaj/Documents/thesis/finalCases/rectDuct/AR_7_Ret_180/00Baseline/beta11/dynamicCode/platforms/linux64GccDPInt32Opt/lib/libcodeStream_b722fabf098b18339f95f0d998fd38d9cb6606cd.so"
Reading set description:
    line

wallShearStress wallShearStress:
    processing all wall patches

Reading surface description:
    wallValues

    Writing cell-volumes field V to 3636
wallShearStress wallShearStress write:
    writing object wallShearStress
    min/max(wallTop) = (-7.31923 -5.90318e-16 -1.19769e-16), (-0.0274902 3.34273e-16 2.36642e-16)
    min/max(wallSide) = (-5.58154 -1.14724e-15 -3.87342e-16), (-0.026862 1.48977e-15 5.0368e-16)


End

/*---------------------------------------------------------------------------*\
  =========                 |
  \\      /  F ield         | OpenFOAM: The Open Source CFD Toolbox
   \\    /   O peration     | Website:  https://openfoam.org
    \\  /    A nd           | Version:  7
     \\/     M anipulation  |
\*---------------------------------------------------------------------------*/
Build  : 7-3bcbaf946ae9
Exec   : postProcess -func faceValues -latestTime
Date   : May 22 2023
Time   : 12:18:13
Host   : "kaj-HP-ZBook-Studio-G4"
PID    : 33203
I/O    : uncollated
Case   : /home/kaj/Documents/thesis/finalCases/rectDuct/AR_7_Ret_180/00Baseline/beta11
nProcs : 1
sigFpe : Enabling floating point exception trapping (FOAM_SIGFPE).
fileModificationChecking : Monitoring run-time modified files using timeStampMaster (fileModificationSkew 10)
allowSystemOperations : Allowing user-supplied system call operations

// * * * * * * * * * * * * * * * * * * * * * * * * * * * * * * * * * * * * * //
Create time

Using #calcEntry at line 4 in file "/home/kaj/Documents/thesis/finalCases/rectDuct/AR_7_Ret_180/00Baseline/beta11/system/controlDict.functions.convergenceProbes"
Using #codeStream with "/home/kaj/Documents/thesis/finalCases/rectDuct/AR_7_Ret_180/00Baseline/beta11/dynamicCode/platforms/linux64GccDPInt32Opt/lib/libcodeStream_e305d05308d1ade03f6eb88824101ddb2eba3278.so"
Using #calcEntry at line 5 in file "/home/kaj/Documents/thesis/finalCases/rectDuct/AR_7_Ret_180/00Baseline/beta11/system/controlDict.functions.convergenceProbes"
Using #codeStream with "/home/kaj/Documents/thesis/finalCases/rectDuct/AR_7_Ret_180/00Baseline/beta11/dynamicCode/platforms/linux64GccDPInt32Opt/lib/libcodeStream_8f3c4192690bcc53a34cf723aeeab9b62f638bd7.so"
Using #calcEntry at line 6 in file "/home/kaj/Documents/thesis/finalCases/rectDuct/AR_7_Ret_180/00Baseline/beta11/system/controlDict.functions.convergenceProbes"
Using #codeStream with "/home/kaj/Documents/thesis/finalCases/rectDuct/AR_7_Ret_180/00Baseline/beta11/dynamicCode/platforms/linux64GccDPInt32Opt/lib/libcodeStream_a2727cef0b180b3b2f6a19fffe5ff7cc3de40b59.so"
Using #calcEntry at line 7 in file "/home/kaj/Documents/thesis/finalCases/rectDuct/AR_7_Ret_180/00Baseline/beta11/system/controlDict.functions.convergenceProbes"
Using #codeStream with "/home/kaj/Documents/thesis/finalCases/rectDuct/AR_7_Ret_180/00Baseline/beta11/dynamicCode/platforms/linux64GccDPInt32Opt/lib/libcodeStream_4cfdc239927794397c7aae02eeafc7aa6edbc313.so"
Using #calcEntry at line 8 in file "/home/kaj/Documents/thesis/finalCases/rectDuct/AR_7_Ret_180/00Baseline/beta11/system/controlDict.functions.convergenceProbes"
Using #codeStream with "/home/kaj/Documents/thesis/finalCases/rectDuct/AR_7_Ret_180/00Baseline/beta11/dynamicCode/platforms/linux64GccDPInt32Opt/lib/libcodeStream_d847d0a0444687a8a569491287eb887fec5c91f6.so"
Using #calcEntry at line 9 in file "/home/kaj/Documents/thesis/finalCases/rectDuct/AR_7_Ret_180/00Baseline/beta11/system/controlDict.functions.convergenceProbes"
Using #codeStream with "/home/kaj/Documents/thesis/finalCases/rectDuct/AR_7_Ret_180/00Baseline/beta11/dynamicCode/platforms/linux64GccDPInt32Opt/lib/libcodeStream_35545c138b51aa016cb1c13b3b938663ba1f3866.so"
Create mesh for time = 3636

Using #calcEntry at line 22 in file "controlDict.functions.faceValues"
Using #codeStream with "/home/kaj/Documents/thesis/finalCases/rectDuct/AR_7_Ret_180/00Baseline/beta11/dynamicCode/platforms/linux64GccDPInt32Opt/lib/libcodeStream_74d1f5d0dba714f6abc8dbfc53d142ceeeda3c68.so"
Reading surface description:
    faceValues

Time = 3636

Reading fields:
    volScalarFields: p k V omega
    volVectorFields: U

Executing functionObjects

End

