/*---------------------------------------------------------------------------*\
  =========                 |
  \\      /  F ield         | OpenFOAM: The Open Source CFD Toolbox
   \\    /   O peration     | Website:  https://openfoam.org
    \\  /    A nd           | Version:  7
     \\/     M anipulation  |
\*---------------------------------------------------------------------------*/
Build  : 7-3bcbaf946ae9
Exec   : simpleFoam
Date   : May 08 2023
Time   : 20:54:43
Host   : "kaj-HP-ZBook-Studio-G4"
PID    : 234723
I/O    : uncollated
Case   : /home/kaj/Documents/thesis/finalCases/rectDuct/AR_3_Ret_360/00Baseline/beta11
nProcs : 1
sigFpe : Enabling floating point exception trapping (FOAM_SIGFPE).
fileModificationChecking : Monitoring run-time modified files using timeStampMaster (fileModificationSkew 10)
allowSystemOperations : Allowing user-supplied system call operations

// * * * * * * * * * * * * * * * * * * * * * * * * * * * * * * * * * * * * * //
Create time

Using #calcEntry at line 4 in file "/home/kaj/Documents/thesis/finalCases/rectDuct/AR_3_Ret_360/00Baseline/beta11/system/controlDict.functions.convergenceProbes"
Using #codeStream with "/home/kaj/Documents/thesis/finalCases/rectDuct/AR_3_Ret_360/00Baseline/beta11/dynamicCode/platforms/linux64GccDPInt32Opt/lib/libcodeStream_e305d05308d1ade03f6eb88824101ddb2eba3278.so"
Creating new library in "dynamicCode/_e305d05308d1ade03f6eb88824101ddb2eba3278/platforms/linux64GccDPInt32Opt/lib/libcodeStream_e305d05308d1ade03f6eb88824101ddb2eba3278.so"
Invoking "wmake -s libso /home/kaj/Documents/thesis/finalCases/rectDuct/AR_3_Ret_360/00Baseline/beta11/dynamicCode/_e305d05308d1ade03f6eb88824101ddb2eba3278"
wmake libso /home/kaj/Documents/thesis/finalCases/rectDuct/AR_3_Ret_360/00Baseline/beta11/dynamicCode/_e305d05308d1ade03f6eb88824101ddb2eba3278
    wmkdep: codeStreamTemplate.C
    Ctoo: codeStreamTemplate.C
    ld: /home/kaj/Documents/thesis/finalCases/rectDuct/AR_3_Ret_360/00Baseline/beta11/dynamicCode/_e305d05308d1ade03f6eb88824101ddb2eba3278/../platforms/linux64GccDPInt32Opt/lib/libcodeStream_e305d05308d1ade03f6eb88824101ddb2eba3278.so
Using #calcEntry at line 5 in file "/home/kaj/Documents/thesis/finalCases/rectDuct/AR_3_Ret_360/00Baseline/beta11/system/controlDict.functions.convergenceProbes"
Using #codeStream with "/home/kaj/Documents/thesis/finalCases/rectDuct/AR_3_Ret_360/00Baseline/beta11/dynamicCode/platforms/linux64GccDPInt32Opt/lib/libcodeStream_8f3c4192690bcc53a34cf723aeeab9b62f638bd7.so"
Creating new library in "dynamicCode/_8f3c4192690bcc53a34cf723aeeab9b62f638bd7/platforms/linux64GccDPInt32Opt/lib/libcodeStream_8f3c4192690bcc53a34cf723aeeab9b62f638bd7.so"
Invoking "wmake -s libso /home/kaj/Documents/thesis/finalCases/rectDuct/AR_3_Ret_360/00Baseline/beta11/dynamicCode/_8f3c4192690bcc53a34cf723aeeab9b62f638bd7"
wmake libso /home/kaj/Documents/thesis/finalCases/rectDuct/AR_3_Ret_360/00Baseline/beta11/dynamicCode/_8f3c4192690bcc53a34cf723aeeab9b62f638bd7
    wmkdep: codeStreamTemplate.C
    Ctoo: codeStreamTemplate.C
    ld: /home/kaj/Documents/thesis/finalCases/rectDuct/AR_3_Ret_360/00Baseline/beta11/dynamicCode/_8f3c4192690bcc53a34cf723aeeab9b62f638bd7/../platforms/linux64GccDPInt32Opt/lib/libcodeStream_8f3c4192690bcc53a34cf723aeeab9b62f638bd7.so
Using #calcEntry at line 6 in file "/home/kaj/Documents/thesis/finalCases/rectDuct/AR_3_Ret_360/00Baseline/beta11/system/controlDict.functions.convergenceProbes"
Using #codeStream with "/home/kaj/Documents/thesis/finalCases/rectDuct/AR_3_Ret_360/00Baseline/beta11/dynamicCode/platforms/linux64GccDPInt32Opt/lib/libcodeStream_a2727cef0b180b3b2f6a19fffe5ff7cc3de40b59.so"
Creating new library in "dynamicCode/_a2727cef0b180b3b2f6a19fffe5ff7cc3de40b59/platforms/linux64GccDPInt32Opt/lib/libcodeStream_a2727cef0b180b3b2f6a19fffe5ff7cc3de40b59.so"
Invoking "wmake -s libso /home/kaj/Documents/thesis/finalCases/rectDuct/AR_3_Ret_360/00Baseline/beta11/dynamicCode/_a2727cef0b180b3b2f6a19fffe5ff7cc3de40b59"
wmake libso /home/kaj/Documents/thesis/finalCases/rectDuct/AR_3_Ret_360/00Baseline/beta11/dynamicCode/_a2727cef0b180b3b2f6a19fffe5ff7cc3de40b59
    wmkdep: codeStreamTemplate.C
    Ctoo: codeStreamTemplate.C
    ld: /home/kaj/Documents/thesis/finalCases/rectDuct/AR_3_Ret_360/00Baseline/beta11/dynamicCode/_a2727cef0b180b3b2f6a19fffe5ff7cc3de40b59/../platforms/linux64GccDPInt32Opt/lib/libcodeStream_a2727cef0b180b3b2f6a19fffe5ff7cc3de40b59.so
Using #calcEntry at line 7 in file "/home/kaj/Documents/thesis/finalCases/rectDuct/AR_3_Ret_360/00Baseline/beta11/system/controlDict.functions.convergenceProbes"
Using #codeStream with "/home/kaj/Documents/thesis/finalCases/rectDuct/AR_3_Ret_360/00Baseline/beta11/dynamicCode/platforms/linux64GccDPInt32Opt/lib/libcodeStream_77c1b515a8b088b67e1d737b2fbdc78df2ebf6b8.so"
Creating new library in "dynamicCode/_77c1b515a8b088b67e1d737b2fbdc78df2ebf6b8/platforms/linux64GccDPInt32Opt/lib/libcodeStream_77c1b515a8b088b67e1d737b2fbdc78df2ebf6b8.so"
Invoking "wmake -s libso /home/kaj/Documents/thesis/finalCases/rectDuct/AR_3_Ret_360/00Baseline/beta11/dynamicCode/_77c1b515a8b088b67e1d737b2fbdc78df2ebf6b8"
wmake libso /home/kaj/Documents/thesis/finalCases/rectDuct/AR_3_Ret_360/00Baseline/beta11/dynamicCode/_77c1b515a8b088b67e1d737b2fbdc78df2ebf6b8
    wmkdep: codeStreamTemplate.C
    Ctoo: codeStreamTemplate.C
    ld: /home/kaj/Documents/thesis/finalCases/rectDuct/AR_3_Ret_360/00Baseline/beta11/dynamicCode/_77c1b515a8b088b67e1d737b2fbdc78df2ebf6b8/../platforms/linux64GccDPInt32Opt/lib/libcodeStream_77c1b515a8b088b67e1d737b2fbdc78df2ebf6b8.so
Using #calcEntry at line 8 in file "/home/kaj/Documents/thesis/finalCases/rectDuct/AR_3_Ret_360/00Baseline/beta11/system/controlDict.functions.convergenceProbes"
Using #codeStream with "/home/kaj/Documents/thesis/finalCases/rectDuct/AR_3_Ret_360/00Baseline/beta11/dynamicCode/platforms/linux64GccDPInt32Opt/lib/libcodeStream_b45c68bb8d82afc46655e39440f24b8490cecfc5.so"
Creating new library in "dynamicCode/_b45c68bb8d82afc46655e39440f24b8490cecfc5/platforms/linux64GccDPInt32Opt/lib/libcodeStream_b45c68bb8d82afc46655e39440f24b8490cecfc5.so"
Invoking "wmake -s libso /home/kaj/Documents/thesis/finalCases/rectDuct/AR_3_Ret_360/00Baseline/beta11/dynamicCode/_b45c68bb8d82afc46655e39440f24b8490cecfc5"
wmake libso /home/kaj/Documents/thesis/finalCases/rectDuct/AR_3_Ret_360/00Baseline/beta11/dynamicCode/_b45c68bb8d82afc46655e39440f24b8490cecfc5
    wmkdep: codeStreamTemplate.C
    Ctoo: codeStreamTemplate.C
    ld: /home/kaj/Documents/thesis/finalCases/rectDuct/AR_3_Ret_360/00Baseline/beta11/dynamicCode/_b45c68bb8d82afc46655e39440f24b8490cecfc5/../platforms/linux64GccDPInt32Opt/lib/libcodeStream_b45c68bb8d82afc46655e39440f24b8490cecfc5.so
Using #calcEntry at line 9 in file "/home/kaj/Documents/thesis/finalCases/rectDuct/AR_3_Ret_360/00Baseline/beta11/system/controlDict.functions.convergenceProbes"
Using #codeStream with "/home/kaj/Documents/thesis/finalCases/rectDuct/AR_3_Ret_360/00Baseline/beta11/dynamicCode/platforms/linux64GccDPInt32Opt/lib/libcodeStream_18bb787ec38025679734a8373922a0c147b9578e.so"
Creating new library in "dynamicCode/_18bb787ec38025679734a8373922a0c147b9578e/platforms/linux64GccDPInt32Opt/lib/libcodeStream_18bb787ec38025679734a8373922a0c147b9578e.so"
Invoking "wmake -s libso /home/kaj/Documents/thesis/finalCases/rectDuct/AR_3_Ret_360/00Baseline/beta11/dynamicCode/_18bb787ec38025679734a8373922a0c147b9578e"
wmake libso /home/kaj/Documents/thesis/finalCases/rectDuct/AR_3_Ret_360/00Baseline/beta11/dynamicCode/_18bb787ec38025679734a8373922a0c147b9578e
    wmkdep: codeStreamTemplate.C
    Ctoo: codeStreamTemplate.C
    ld: /home/kaj/Documents/thesis/finalCases/rectDuct/AR_3_Ret_360/00Baseline/beta11/dynamicCode/_18bb787ec38025679734a8373922a0c147b9578e/../platforms/linux64GccDPInt32Opt/lib/libcodeStream_18bb787ec38025679734a8373922a0c147b9578e.so
Create mesh for time = 0


SIMPLE: Convergence criteria found
        k: tolerance 5e-06
        omega: tolerance 1e-10

Reading field p

Reading field U

Using #calcEntry at line 19 in file "/home/kaj/Documents/thesis/finalCases/rectDuct/AR_3_Ret_360/00Baseline/beta11/0/U"
Using #codeStream with "/home/kaj/Documents/thesis/finalCases/rectDuct/AR_3_Ret_360/00Baseline/beta11/dynamicCode/platforms/linux64GccDPInt32Opt/lib/libcodeStream_0c66f1b8c0fb8e5e97663c13f03321dce758d9f6.so"
Creating new library in "dynamicCode/_0c66f1b8c0fb8e5e97663c13f03321dce758d9f6/platforms/linux64GccDPInt32Opt/lib/libcodeStream_0c66f1b8c0fb8e5e97663c13f03321dce758d9f6.so"
Invoking "wmake -s libso /home/kaj/Documents/thesis/finalCases/rectDuct/AR_3_Ret_360/00Baseline/beta11/dynamicCode/_0c66f1b8c0fb8e5e97663c13f03321dce758d9f6"
wmake libso /home/kaj/Documents/thesis/finalCases/rectDuct/AR_3_Ret_360/00Baseline/beta11/dynamicCode/_0c66f1b8c0fb8e5e97663c13f03321dce758d9f6
    wmkdep: codeStreamTemplate.C
    Ctoo: codeStreamTemplate.C
    ld: /home/kaj/Documents/thesis/finalCases/rectDuct/AR_3_Ret_360/00Baseline/beta11/dynamicCode/_0c66f1b8c0fb8e5e97663c13f03321dce758d9f6/../platforms/linux64GccDPInt32Opt/lib/libcodeStream_0c66f1b8c0fb8e5e97663c13f03321dce758d9f6.so
Reading/calculating face flux field phi

Selecting incompressible transport model Newtonian
Selecting turbulence model type RAS
Selecting RAS turbulence model kOmegaSST
Selecting patchDistMethod meshWave
bounding k, min: 0 max: 0.02 average: 0.02
RAS
{
    RASModel        kOmegaSST;
    turbulence      on;
    printCoeffs     on;
    alphaK1         0.85;
    alphaK2         1;
    alphaOmega1     0.5;
    alphaOmega2     0.856;
    gamma1          0.555556;
    gamma2          0.44;
    beta1           0.075;
    beta2           0.0828;
    betaStar        0.09;
    a1              0.31;
    b1              1;
    c1              10;
    F3              false;
}

No MRF models present

Creating finite volume options from "system/fvOptions"

Using #calcEntry at line 20 in file "/home/kaj/Documents/thesis/finalCases/rectDuct/AR_3_Ret_360/00Baseline/beta11/system/fvOptions"
Selecting finite volume options model type meanVelocityForce
    Source: meanVelocity1
    - selecting all cells
    - selected 8748 cell(s) with volume 3e-09
    Initial pressure gradient = 0


Starting time loop

Time = 1

DILUPBiCGStab:  Solving for Ux, Initial residual = 1, Final residual = 0.00477261, No Iterations 1
DILUPBiCGStab:  Solving for Uy, Initial residual = 0.983257, Final residual = 0.00968992, No Iterations 1
DILUPBiCGStab:  Solving for Uz, Initial residual = 0.981446, Final residual = 0.00952836, No Iterations 1
Pressure gradient source: uncorrected Ubar = 87.2453, pressure gradient = 48384.2
GAMG:  Solving for p, Initial residual = 0.451366, Final residual = 0.0362758, No Iterations 3
time step continuity errors : sum local = 2.61475e-13, global = -2.44811e-13, cumulative = -2.44811e-13
Pressure gradient source: uncorrected Ubar = 87.2536, pressure gradient = 6905.99
DILUPBiCGStab:  Solving for omega, Initial residual = 0.164867, Final residual = 0.000771033, No Iterations 1
DILUPBiCGStab:  Solving for k, Initial residual = 1, Final residual = 0.00475443, No Iterations 1
bounding k, min: 0 max: 0.0414421 average: 0.0216998
ExecutionTime = 0.19 s  ClockTime = 8 s

Time = 2

DILUPBiCGStab:  Solving for Ux, Initial residual = 0.727374, Final residual = 0.00445643, No Iterations 1
DILUPBiCGStab:  Solving for Uy, Initial residual = 0.936021, Final residual = 0.00821601, No Iterations 3
DILUPBiCGStab:  Solving for Uz, Initial residual = 0.900036, Final residual = 0.00325482, No Iterations 3
Pressure gradient source: uncorrected Ubar = 87.1159, pressure gradient = 93674.8
GAMG:  Solving for p, Initial residual = 0.807061, Final residual = 0.0510621, No Iterations 4
time step continuity errors : sum local = 3.81856e-12, global = -5.53512e-13, cumulative = -7.98323e-13
Pressure gradient source: uncorrected Ubar = 87.2444, pressure gradient = 13523
DILUPBiCGStab:  Solving for omega, Initial residual = 0.0611844, Final residual = 1.16662e-05, No Iterations 1
DILUPBiCGStab:  Solving for k, Initial residual = 0.678737, Final residual = 0.00052112, No Iterations 1
bounding k, min: 0 max: 0.0200224 average: 0.0179545
ExecutionTime = 0.25 s  ClockTime = 8 s

Time = 3

DILUPBiCGStab:  Solving for Ux, Initial residual = 0.0647799, Final residual = 0.000479059, No Iterations 1
DILUPBiCGStab:  Solving for Uy, Initial residual = 0.792131, Final residual = 0.00743405, No Iterations 4
DILUPBiCGStab:  Solving for Uz, Initial residual = 0.774825, Final residual = 0.00436805, No Iterations 4
Pressure gradient source: uncorrected Ubar = 87.3174, pressure gradient = -1102.98
GAMG:  Solving for p, Initial residual = 0.856011, Final residual = 0.0417746, No Iterations 4
time step continuity errors : sum local = 5.95539e-12, global = -2.99988e-13, cumulative = -1.09831e-12
Pressure gradient source: uncorrected Ubar = 87.2992, pressure gradient = 3171.9
DILUPBiCGStab:  Solving for omega, Initial residual = 0.00384806, Final residual = 1.74973e-06, No Iterations 1
DILUPBiCGStab:  Solving for k, Initial residual = 0.155791, Final residual = 0.000290234, No Iterations 1
bounding k, min: 0 max: 0.0200198 average: 0.0163439
ExecutionTime = 0.29 s  ClockTime = 8 s

Time = 4

DILUPBiCGStab:  Solving for Ux, Initial residual = 0.0328097, Final residual = 0.000235612, No Iterations 1
DILUPBiCGStab:  Solving for Uy, Initial residual = 0.689811, Final residual = 0.00595033, No Iterations 4
DILUPBiCGStab:  Solving for Uz, Initial residual = 0.764957, Final residual = 0.0060352, No Iterations 4
Pressure gradient source: uncorrected Ubar = 87.187, pressure gradient = 18023.9
GAMG:  Solving for p, Initial residual = 0.854206, Final residual = 0.0481721, No Iterations 4
time step continuity errors : sum local = 6.27389e-12, global = -2.82245e-13, cumulative = -1.38056e-12
Pressure gradient source: uncorrected Ubar = 87.257, pressure gradient = 2726.08
DILUPBiCGStab:  Solving for omega, Initial residual = 0.00137451, Final residual = 6.55901e-07, No Iterations 1
DILUPBiCGStab:  Solving for k, Initial residual = 0.0395345, Final residual = 0.000204318, No Iterations 1
bounding k, min: 0 max: 0.0200479 average: 0.0154378
ExecutionTime = 0.35 s  ClockTime = 8 s

Time = 5

DILUPBiCGStab:  Solving for Ux, Initial residual = 0.022899, Final residual = 0.000216529, No Iterations 1
DILUPBiCGStab:  Solving for Uy, Initial residual = 0.461161, Final residual = 0.00363927, No Iterations 4
DILUPBiCGStab:  Solving for Uz, Initial residual = 0.774309, Final residual = 0.00475974, No Iterations 4
Pressure gradient source: uncorrected Ubar = 87.1838, pressure gradient = 17847.5
GAMG:  Solving for p, Initial residual = 0.842221, Final residual = 0.0463375, No Iterations 4
time step continuity errors : sum local = 4.81294e-12, global = -2.80874e-13, cumulative = -1.66143e-12
Pressure gradient source: uncorrected Ubar = 87.2554, pressure gradient = 2640.73
DILUPBiCGStab:  Solving for omega, Initial residual = 0.000467908, Final residual = 2.65203e-07, No Iterations 1
DILUPBiCGStab:  Solving for k, Initial residual = 0.0138648, Final residual = 1.51855e-05, No Iterations 1
bounding k, min: 0 max: 0.0201889 average: 0.0147888
ExecutionTime = 0.41 s  ClockTime = 8 s

Time = 6

DILUPBiCGStab:  Solving for Ux, Initial residual = 0.0190847, Final residual = 9.39381e-05, No Iterations 2
DILUPBiCGStab:  Solving for Uy, Initial residual = 0.523356, Final residual = 0.00336638, No Iterations 4
DILUPBiCGStab:  Solving for Uz, Initial residual = 0.911848, Final residual = 0.00627561, No Iterations 4
Pressure gradient source: uncorrected Ubar = 87.1986, pressure gradient = 14328.9
GAMG:  Solving for p, Initial residual = 0.847995, Final residual = 0.0666089, No Iterations 4
time step continuity errors : sum local = 6.12994e-12, global = -3.16547e-13, cumulative = -1.97798e-12
Pressure gradient source: uncorrected Ubar = 87.2552, pressure gradient = 2600.69
DILUPBiCGStab:  Solving for omega, Initial residual = 0.000188993, Final residual = 1.50982e-07, No Iterations 1
DILUPBiCGStab:  Solving for k, Initial residual = 0.00652552, Final residual = 1.48409e-05, No Iterations 1
bounding k, min: 0 max: 0.0204222 average: 0.0143424
ExecutionTime = 0.46 s  ClockTime = 8 s

Time = 7

DILUPBiCGStab:  Solving for Ux, Initial residual = 0.0169143, Final residual = 9.72221e-05, No Iterations 2
DILUPBiCGStab:  Solving for Uy, Initial residual = 0.797337, Final residual = 0.00462854, No Iterations 4
DILUPBiCGStab:  Solving for Uz, Initial residual = 0.904219, Final residual = 0.00558479, No Iterations 4
Pressure gradient source: uncorrected Ubar = 87.1954, pressure gradient = 14733.2
GAMG:  Solving for p, Initial residual = 0.820968, Final residual = 0.0594517, No Iterations 4
time step continuity errors : sum local = 4.92828e-12, global = -1.29184e-13, cumulative = -2.10716e-12
Pressure gradient source: uncorrected Ubar = 87.2549, pressure gradient = 2630.32
DILUPBiCGStab:  Solving for omega, Initial residual = 7.1071e-05, Final residual = 9.32457e-08, No Iterations 1
DILUPBiCGStab:  Solving for k, Initial residual = 0.00391635, Final residual = 1.63508e-05, No Iterations 1
bounding k, min: 0 max: 0.020771 average: 0.0140355
ExecutionTime = 0.52 s  ClockTime = 8 s

Time = 8

DILUPBiCGStab:  Solving for Ux, Initial residual = 0.0148721, Final residual = 9.86617e-05, No Iterations 2
DILUPBiCGStab:  Solving for Uy, Initial residual = 0.559852, Final residual = 0.00379842, No Iterations 4
DILUPBiCGStab:  Solving for Uz, Initial residual = 0.862142, Final residual = 0.00492059, No Iterations 4
Pressure gradient source: uncorrected Ubar = 87.1929, pressure gradient = 15093.7
GAMG:  Solving for p, Initial residual = 0.832555, Final residual = 0.0766114, No Iterations 4
time step continuity errors : sum local = 6.07012e-12, global = -6.25e-13, cumulative = -2.73216e-12
Pressure gradient source: uncorrected Ubar = 87.2547, pressure gradient = 2689.3
DILUPBiCGStab:  Solving for omega, Initial residual = 2.94259e-05, Final residual = 7.82499e-08, No Iterations 1
DILUPBiCGStab:  Solving for k, Initial residual = 0.00269016, Final residual = 2.18753e-05, No Iterations 1
bounding k, min: 0 max: 0.0212949 average: 0.0138354
ExecutionTime = 0.57 s  ClockTime = 8 s

Time = 9

DILUPBiCGStab:  Solving for Ux, Initial residual = 0.0132159, Final residual = 0.000100096, No Iterations 2
DILUPBiCGStab:  Solving for Uy, Initial residual = 0.547301, Final residual = 0.00377808, No Iterations 4
DILUPBiCGStab:  Solving for Uz, Initial residual = 0.881359, Final residual = 0.00421578, No Iterations 4
Pressure gradient source: uncorrected Ubar = 87.1906, pressure gradient = 15460.9
GAMG:  Solving for p, Initial residual = 0.852192, Final residual = 0.0784142, No Iterations 4
time step continuity errors : sum local = 4.95808e-12, global = -4.00037e-13, cumulative = -3.1322e-12
Pressure gradient source: uncorrected Ubar = 87.2546, pressure gradient = 2767.15
DILUPBiCGStab:  Solving for omega, Initial residual = 1.15632e-05, Final residual = 6.38037e-08, No Iterations 1
DILUPBiCGStab:  Solving for k, Initial residual = 0.00201911, Final residual = 1.06914e-05, No Iterations 2
bounding k, min: 0 max: 0.0221006 average: 0.0137335
ExecutionTime = 0.63 s  ClockTime = 8 s

Time = 10

DILUPBiCGStab:  Solving for Ux, Initial residual = 0.0118929, Final residual = 0.000102027, No Iterations 2
DILUPBiCGStab:  Solving for Uy, Initial residual = 0.755222, Final residual = 0.00721011, No Iterations 3
DILUPBiCGStab:  Solving for Uz, Initial residual = 0.81513, Final residual = 0.00477056, No Iterations 4
Pressure gradient source: uncorrected Ubar = 87.1887, pressure gradient = 15815.4
GAMG:  Solving for p, Initial residual = 0.794375, Final residual = 0.0661276, No Iterations 4
time step continuity errors : sum local = 3.33575e-12, global = -5.76111e-13, cumulative = -3.70831e-12
Pressure gradient source: uncorrected Ubar = 87.2545, pressure gradient = 2857.36
DILUPBiCGStab:  Solving for omega, Initial residual = 5.89542e-06, Final residual = 7.20866e-09, No Iterations 1
DILUPBiCGStab:  Solving for k, Initial residual = 0.00162524, Final residual = 1.33466e-05, No Iterations 2
bounding k, min: 0 max: 0.0230947 average: 0.0137007
ExecutionTime = 0.68 s  ClockTime = 8 s

Time = 11

DILUPBiCGStab:  Solving for Ux, Initial residual = 0.0108159, Final residual = 0.000104257, No Iterations 2
DILUPBiCGStab:  Solving for Uy, Initial residual = 0.55197, Final residual = 0.00369483, No Iterations 4
DILUPBiCGStab:  Solving for Uz, Initial residual = 0.718711, Final residual = 0.00566769, No Iterations 4
Pressure gradient source: uncorrected Ubar = 87.187, pressure gradient = 16147.2
GAMG:  Solving for p, Initial residual = 0.773997, Final residual = 0.0752889, No Iterations 4
time step continuity errors : sum local = 3.02246e-12, global = -1.69973e-13, cumulative = -3.87828e-12
Pressure gradient source: uncorrected Ubar = 87.2545, pressure gradient = 2955.76
DILUPBiCGStab:  Solving for omega, Initial residual = 2.76717e-06, Final residual = 6.26979e-09, No Iterations 1
DILUPBiCGStab:  Solving for k, Initial residual = 0.00139795, Final residual = 1.35323e-05, No Iterations 2
bounding k, min: 0 max: 0.0243317 average: 0.0137235
ExecutionTime = 0.75 s  ClockTime = 8 s

Time = 12

DILUPBiCGStab:  Solving for Ux, Initial residual = 0.00992357, Final residual = 7.53696e-05, No Iterations 2
DILUPBiCGStab:  Solving for Uy, Initial residual = 0.486891, Final residual = 0.00370813, No Iterations 4
DILUPBiCGStab:  Solving for Uz, Initial residual = 0.648734, Final residual = 0.00452483, No Iterations 4
Pressure gradient source: uncorrected Ubar = 87.2094, pressure gradient = 11818.6
GAMG:  Solving for p, Initial residual = 0.792199, Final residual = 0.0746558, No Iterations 4
time step continuity errors : sum local = 2.9139e-12, global = -5.2361e-13, cumulative = -4.40189e-12
Pressure gradient source: uncorrected Ubar = 87.2545, pressure gradient = 3061.61
DILUPBiCGStab:  Solving for omega, Initial residual = 2.10324e-06, Final residual = 5.7566e-09, No Iterations 1
DILUPBiCGStab:  Solving for k, Initial residual = 0.00128151, Final residual = 5.49459e-06, No Iterations 2
bounding k, min: 0 max: 0.0258937 average: 0.0138025
ExecutionTime = 0.83 s  ClockTime = 8 s

Time = 13

DILUPBiCGStab:  Solving for Ux, Initial residual = 0.00917863, Final residual = 7.72072e-05, No Iterations 2
DILUPBiCGStab:  Solving for Uy, Initial residual = 0.569304, Final residual = 0.00321277, No Iterations 4
DILUPBiCGStab:  Solving for Uz, Initial residual = 0.75927, Final residual = 0.005733, No Iterations 4
Pressure gradient source: uncorrected Ubar = 87.2077, pressure gradient = 12210
GAMG:  Solving for p, Initial residual = 0.770197, Final residual = 0.0480197, No Iterations 5
time step continuity errors : sum local = 1.82509e-12, global = -5.11058e-13, cumulative = -4.91295e-12
Pressure gradient source: uncorrected Ubar = 87.2544, pressure gradient = 3168.33
DILUPBiCGStab:  Solving for omega, Initial residual = 1.39142e-06, Final residual = 5.17728e-09, No Iterations 1
DILUPBiCGStab:  Solving for k, Initial residual = 0.00123454, Final residual = 7.1432e-06, No Iterations 2
bounding k, min: 0 max: 0.0276821 average: 0.0139327
ExecutionTime = 0.89 s  ClockTime = 8 s

Time = 14

DILUPBiCGStab:  Solving for Ux, Initial residual = 0.0085444, Final residual = 7.89197e-05, No Iterations 2
DILUPBiCGStab:  Solving for Uy, Initial residual = 0.735242, Final residual = 0.00503491, No Iterations 4
DILUPBiCGStab:  Solving for Uz, Initial residual = 0.669366, Final residual = 0.0048728, No Iterations 4
Pressure gradient source: uncorrected Ubar = 87.2059, pressure gradient = 12624.9
GAMG:  Solving for p, Initial residual = 0.745066, Final residual = 0.072326, No Iterations 4
time step continuity errors : sum local = 2.46419e-12, global = -7.28912e-13, cumulative = -5.64186e-12
Pressure gradient source: uncorrected Ubar = 87.2544, pressure gradient = 3277.82
DILUPBiCGStab:  Solving for omega, Initial residual = 1.29767e-06, Final residual = 4.92754e-09, No Iterations 1
DILUPBiCGStab:  Solving for k, Initial residual = 0.00123129, Final residual = 8.41407e-06, No Iterations 2
bounding k, min: 0 max: 0.029881 average: 0.014113
ExecutionTime = 0.96 s  ClockTime = 8 s

Time = 15

DILUPBiCGStab:  Solving for Ux, Initial residual = 0.00799707, Final residual = 5.52401e-05, No Iterations 3
DILUPBiCGStab:  Solving for Uy, Initial residual = 0.422097, Final residual = 0.00343085, No Iterations 4
DILUPBiCGStab:  Solving for Uz, Initial residual = 0.603214, Final residual = 0.00421386, No Iterations 4
Pressure gradient source: uncorrected Ubar = 87.2258, pressure gradient = 8892.68
GAMG:  Solving for p, Initial residual = 0.670857, Final residual = 0.0667225, No Iterations 4
time step continuity errors : sum local = 1.76895e-12, global = -2.26903e-13, cumulative = -5.86877e-12
Pressure gradient source: uncorrected Ubar = 87.2544, pressure gradient = 3384.4
DILUPBiCGStab:  Solving for omega, Initial residual = 1.05956e-06, Final residual = 4.5966e-09, No Iterations 1
DILUPBiCGStab:  Solving for k, Initial residual = 0.00124347, Final residual = 1.03897e-05, No Iterations 2
bounding k, min: 0 max: 0.0322657 average: 0.0143391
ExecutionTime = 1.02 s  ClockTime = 8 s

Time = 16

DILUPBiCGStab:  Solving for Ux, Initial residual = 0.00751671, Final residual = 5.5233e-05, No Iterations 3
DILUPBiCGStab:  Solving for Uy, Initial residual = 0.435143, Final residual = 0.00400987, No Iterations 4
DILUPBiCGStab:  Solving for Uz, Initial residual = 0.574965, Final residual = 0.00516925, No Iterations 4
Pressure gradient source: uncorrected Ubar = 87.225, pressure gradient = 9140.34
GAMG:  Solving for p, Initial residual = 0.663967, Final residual = 0.0657284, No Iterations 4
time step continuity errors : sum local = 2.01446e-12, global = -5.84822e-13, cumulative = -6.45359e-12
Pressure gradient source: uncorrected Ubar = 87.2544, pressure gradient = 3493.71
DILUPBiCGStab:  Solving for omega, Initial residual = 9.93903e-07, Final residual = 4.47871e-09, No Iterations 1
DILUPBiCGStab:  Solving for k, Initial residual = 0.00128308, Final residual = 3.13424e-06, No Iterations 3
bounding k, min: 0 max: 0.0351066 average: 0.0146161
ExecutionTime = 1.07 s  ClockTime = 8 s

Time = 17

DILUPBiCGStab:  Solving for Ux, Initial residual = 0.00709356, Final residual = 5.49922e-05, No Iterations 3
DILUPBiCGStab:  Solving for Uy, Initial residual = 0.676313, Final residual = 0.00517274, No Iterations 4
DILUPBiCGStab:  Solving for Uz, Initial residual = 0.657313, Final residual = 0.00478309, No Iterations 4
Pressure gradient source: uncorrected Ubar = 87.2243, pressure gradient = 9389.56
GAMG:  Solving for p, Initial residual = 0.675226, Final residual = 0.057195, No Iterations 4
time step continuity errors : sum local = 1.37399e-12, global = -2.55527e-13, cumulative = -6.70912e-12
Pressure gradient source: uncorrected Ubar = 87.2544, pressure gradient = 3608.63
DILUPBiCGStab:  Solving for omega, Initial residual = 8.87167e-07, Final residual = 4.33243e-09, No Iterations 1
DILUPBiCGStab:  Solving for k, Initial residual = 0.00133775, Final residual = 3.70166e-06, No Iterations 3
bounding k, min: 0 max: 0.0383591 average: 0.0149442
ExecutionTime = 1.13 s  ClockTime = 8 s

Time = 18

DILUPBiCGStab:  Solving for Ux, Initial residual = 0.00672035, Final residual = 5.49579e-05, No Iterations 3
DILUPBiCGStab:  Solving for Uy, Initial residual = 0.426614, Final residual = 0.00288942, No Iterations 4
DILUPBiCGStab:  Solving for Uz, Initial residual = 0.556626, Final residual = 0.00459864, No Iterations 4
Pressure gradient source: uncorrected Ubar = 87.2243, pressure gradient = 9501.3
GAMG:  Solving for p, Initial residual = 0.670416, Final residual = 0.061323, No Iterations 4
time step continuity errors : sum local = 1.3523e-12, global = -3.74248e-13, cumulative = -7.08336e-12
Pressure gradient source: uncorrected Ubar = 87.2545, pressure gradient = 3713.55
DILUPBiCGStab:  Solving for omega, Initial residual = 8.15907e-07, Final residual = 4.25487e-09, No Iterations 1
DILUPBiCGStab:  Solving for k, Initial residual = 0.00140734, Final residual = 4.44056e-06, No Iterations 3
bounding k, min: 0 max: 0.0420659 average: 0.015326
ExecutionTime = 1.19 s  ClockTime = 9 s

Time = 19

DILUPBiCGStab:  Solving for Ux, Initial residual = 0.00638562, Final residual = 5.47499e-05, No Iterations 3
DILUPBiCGStab:  Solving for Uy, Initial residual = 0.405153, Final residual = 0.00323632, No Iterations 4
DILUPBiCGStab:  Solving for Uz, Initial residual = 0.606001, Final residual = 0.00560114, No Iterations 4
Pressure gradient source: uncorrected Ubar = 87.2239, pressure gradient = 9670.85
GAMG:  Solving for p, Initial residual = 0.573596, Final residual = 0.0553151, No Iterations 4
time step continuity errors : sum local = 1.31432e-12, global = -3.47674e-13, cumulative = -7.43104e-12
Pressure gradient source: uncorrected Ubar = 87.2545, pressure gradient = 3818.13
DILUPBiCGStab:  Solving for omega, Initial residual = 7.46487e-07, Final residual = 4.1802e-09, No Iterations 1
DILUPBiCGStab:  Solving for k, Initial residual = 0.00148994, Final residual = 5.39135e-06, No Iterations 3
bounding k, min: 0 max: 0.0463656 average: 0.0157641
ExecutionTime = 1.24 s  ClockTime = 9 s

Time = 20

DILUPBiCGStab:  Solving for Ux, Initial residual = 0.00608543, Final residual = 5.47634e-05, No Iterations 3
DILUPBiCGStab:  Solving for Uy, Initial residual = 0.43265, Final residual = 0.00341127, No Iterations 4
DILUPBiCGStab:  Solving for Uz, Initial residual = 0.34733, Final residual = 0.00282875, No Iterations 4
Pressure gradient source: uncorrected Ubar = 87.2239, pressure gradient = 9773.53
GAMG:  Solving for p, Initial residual = 0.586806, Final residual = 0.0555753, No Iterations 4
time step continuity errors : sum local = 1.41572e-12, global = -5.73164e-13, cumulative = -8.0042e-12
Pressure gradient source: uncorrected Ubar = 87.2545, pressure gradient = 3916.23
DILUPBiCGStab:  Solving for omega, Initial residual = 6.89196e-07, Final residual = 4.14007e-09, No Iterations 1
DILUPBiCGStab:  Solving for k, Initial residual = 0.00158214, Final residual = 6.54276e-06, No Iterations 3
bounding k, min: 0 max: 0.0510744 average: 0.0162618
ExecutionTime = 1.3 s  ClockTime = 9 s

Time = 21

DILUPBiCGStab:  Solving for Ux, Initial residual = 0.00581146, Final residual = 5.43613e-05, No Iterations 3
DILUPBiCGStab:  Solving for Uy, Initial residual = 0.446989, Final residual = 0.00436801, No Iterations 4
DILUPBiCGStab:  Solving for Uz, Initial residual = 0.532231, Final residual = 0.00492244, No Iterations 4
Pressure gradient source: uncorrected Ubar = 87.2231, pressure gradient = 10049
GAMG:  Solving for p, Initial residual = 0.579454, Final residual = 0.0306276, No Iterations 5
time step continuity errors : sum local = 6.38659e-13, global = -3.17839e-13, cumulative = -8.32204e-12
Pressure gradient source: uncorrected Ubar = 87.2544, pressure gradient = 4036.83
DILUPBiCGStab:  Solving for omega, Initial residual = 6.37453e-07, Final residual = 4.10894e-09, No Iterations 1
DILUPBiCGStab:  Solving for k, Initial residual = 0.00168433, Final residual = 8.01394e-06, No Iterations 3
bounding k, min: 0 max: 0.0566345 average: 0.0168232
ExecutionTime = 1.36 s  ClockTime = 9 s

Time = 22

DILUPBiCGStab:  Solving for Ux, Initial residual = 0.00556577, Final residual = 5.51404e-05, No Iterations 3
DILUPBiCGStab:  Solving for Uy, Initial residual = 0.567214, Final residual = 0.00303972, No Iterations 4
DILUPBiCGStab:  Solving for Uz, Initial residual = 0.41522, Final residual = 0.00380993, No Iterations 4
Pressure gradient source: uncorrected Ubar = 87.2248, pressure gradient = 9814.38
GAMG:  Solving for p, Initial residual = 0.575231, Final residual = 0.0481815, No Iterations 5
time step continuity errors : sum local = 9.88548e-13, global = -3.76589e-13, cumulative = -8.69863e-12
Pressure gradient source: uncorrected Ubar = 87.2546, pressure gradient = 4109.38
DILUPBiCGStab:  Solving for omega, Initial residual = 5.9176e-07, Final residual = 4.08736e-09, No Iterations 1
DILUPBiCGStab:  Solving for k, Initial residual = 0.00179178, Final residual = 9.52236e-06, No Iterations 3
bounding k, min: 0 max: 0.0627298 average: 0.017452
ExecutionTime = 1.42 s  ClockTime = 9 s

Time = 23

DILUPBiCGStab:  Solving for Ux, Initial residual = 0.00533886, Final residual = 2.84049e-05, No Iterations 3
DILUPBiCGStab:  Solving for Uy, Initial residual = 0.429933, Final residual = 0.00413622, No Iterations 4
DILUPBiCGStab:  Solving for Uz, Initial residual = 0.469139, Final residual = 0.00433797, No Iterations 4
Pressure gradient source: uncorrected Ubar = 87.229, pressure gradient = 9086.76
GAMG:  Solving for p, Initial residual = 0.488257, Final residual = 0.0283213, No Iterations 5
time step continuity errors : sum local = 6.62552e-13, global = -3.57404e-13, cumulative = -9.05603e-12
Pressure gradient source: uncorrected Ubar = 87.2546, pressure gradient = 4193.73
DILUPBiCGStab:  Solving for omega, Initial residual = 5.52496e-07, Final residual = 4.07578e-09, No Iterations 1
DILUPBiCGStab:  Solving for k, Initial residual = 0.00190786, Final residual = 1.10259e-05, No Iterations 3
bounding k, min: 0 max: 0.0694229 average: 0.0181527
ExecutionTime = 1.47 s  ClockTime = 9 s

Time = 24

DILUPBiCGStab:  Solving for Ux, Initial residual = 0.00513188, Final residual = 2.90071e-05, No Iterations 3
DILUPBiCGStab:  Solving for Uy, Initial residual = 0.314873, Final residual = 0.00200464, No Iterations 4
DILUPBiCGStab:  Solving for Uz, Initial residual = 0.334526, Final residual = 0.00239148, No Iterations 4
Pressure gradient source: uncorrected Ubar = 87.229, pressure gradient = 9172.75
GAMG:  Solving for p, Initial residual = 0.450547, Final residual = 0.0351113, No Iterations 4
time step continuity errors : sum local = 1.0909e-12, global = -6.32708e-13, cumulative = -9.68874e-12
Pressure gradient source: uncorrected Ubar = 87.2545, pressure gradient = 4281.3
DILUPBiCGStab:  Solving for omega, Initial residual = 5.16492e-07, Final residual = 4.06801e-09, No Iterations 1
DILUPBiCGStab:  Solving for k, Initial residual = 0.00202881, Final residual = 1.25768e-05, No Iterations 3
bounding k, min: 0 max: 0.0771299 average: 0.0189309
ExecutionTime = 1.54 s  ClockTime = 9 s

Time = 25

DILUPBiCGStab:  Solving for Ux, Initial residual = 0.00494112, Final residual = 2.96529e-05, No Iterations 3
DILUPBiCGStab:  Solving for Uy, Initial residual = 0.394003, Final residual = 0.00256904, No Iterations 4
DILUPBiCGStab:  Solving for Uz, Initial residual = 0.313099, Final residual = 0.0016378, No Iterations 4
Pressure gradient source: uncorrected Ubar = 87.2297, pressure gradient = 9116.61
GAMG:  Solving for p, Initial residual = 0.49549, Final residual = 0.026035, No Iterations 5
time step continuity errors : sum local = 5.67525e-13, global = -2.83075e-13, cumulative = -9.97181e-12
Pressure gradient source: uncorrected Ubar = 87.2546, pressure gradient = 4355.28
DILUPBiCGStab:  Solving for omega, Initial residual = 4.83695e-07, Final residual = 4.05875e-09, No Iterations 1
DILUPBiCGStab:  Solving for k, Initial residual = 0.00215746, Final residual = 1.4115e-05, No Iterations 3
bounding k, min: 0 max: 0.0855254 average: 0.019794
ExecutionTime = 1.61 s  ClockTime = 9 s

Time = 26

DILUPBiCGStab:  Solving for Ux, Initial residual = 0.00476273, Final residual = 2.9906e-05, No Iterations 3
DILUPBiCGStab:  Solving for Uy, Initial residual = 0.420853, Final residual = 0.00250603, No Iterations 4
DILUPBiCGStab:  Solving for Uz, Initial residual = 0.389098, Final residual = 0.00198002, No Iterations 4
Pressure gradient source: uncorrected Ubar = 87.2292, pressure gradient = 9298.43
GAMG:  Solving for p, Initial residual = 0.484407, Final residual = 0.0235854, No Iterations 5
time step continuity errors : sum local = 5.36654e-13, global = -2.85489e-13, cumulative = -1.02573e-11
Pressure gradient source: uncorrected Ubar = 87.2545, pressure gradient = 4449.5
DILUPBiCGStab:  Solving for omega, Initial residual = 4.54173e-07, Final residual = 4.04796e-09, No Iterations 1
DILUPBiCGStab:  Solving for k, Initial residual = 0.00229514, Final residual = 1.55958e-05, No Iterations 3
bounding k, min: 0 max: 0.0947771 average: 0.0207508
ExecutionTime = 1.67 s  ClockTime = 9 s

Time = 27

DILUPBiCGStab:  Solving for Ux, Initial residual = 0.00459825, Final residual = 3.02995e-05, No Iterations 3
DILUPBiCGStab:  Solving for Uy, Initial residual = 0.3138, Final residual = 0.00199757, No Iterations 4
DILUPBiCGStab:  Solving for Uz, Initial residual = 0.285351, Final residual = 0.00272583, No Iterations 4
Pressure gradient source: uncorrected Ubar = 87.2303, pressure gradient = 9190.18
GAMG:  Solving for p, Initial residual = 0.461717, Final residual = 0.041247, No Iterations 4
time step continuity errors : sum local = 9.6998e-13, global = -6.56095e-13, cumulative = -1.09134e-11
Pressure gradient source: uncorrected Ubar = 87.2546, pressure gradient = 4527.41
DILUPBiCGStab:  Solving for omega, Initial residual = 4.26682e-07, Final residual = 4.04789e-09, No Iterations 1
DILUPBiCGStab:  Solving for k, Initial residual = 0.00244776, Final residual = 1.71016e-05, No Iterations 3
bounding k, min: 0 max: 0.105549 average: 0.0218145
ExecutionTime = 1.73 s  ClockTime = 9 s

Time = 28

DILUPBiCGStab:  Solving for Ux, Initial residual = 0.00444235, Final residual = 3.01965e-05, No Iterations 3
DILUPBiCGStab:  Solving for Uy, Initial residual = 0.466899, Final residual = 0.00387218, No Iterations 4
DILUPBiCGStab:  Solving for Uz, Initial residual = 0.350497, Final residual = 0.00279571, No Iterations 4
Pressure gradient source: uncorrected Ubar = 87.2297, pressure gradient = 9409.25
GAMG:  Solving for p, Initial residual = 0.507934, Final residual = 0.0330514, No Iterations 5
time step continuity errors : sum local = 8.41201e-13, global = -4.5467e-13, cumulative = -1.13681e-11
Pressure gradient source: uncorrected Ubar = 87.2544, pressure gradient = 4636.26
DILUPBiCGStab:  Solving for omega, Initial residual = 4.02517e-07, Final residual = 4.02194e-09, No Iterations 1
DILUPBiCGStab:  Solving for k, Initial residual = 0.00262704, Final residual = 1.85602e-05, No Iterations 3
bounding k, min: 0 max: 0.117716 average: 0.0230048
ExecutionTime = 1.8 s  ClockTime = 9 s

Time = 29

DILUPBiCGStab:  Solving for Ux, Initial residual = 0.004301, Final residual = 3.08388e-05, No Iterations 3
DILUPBiCGStab:  Solving for Uy, Initial residual = 0.413217, Final residual = 0.00316444, No Iterations 4
DILUPBiCGStab:  Solving for Uz, Initial residual = 0.568312, Final residual = 0.00392039, No Iterations 4
Pressure gradient source: uncorrected Ubar = 87.2331, pressure gradient = 8854.11
GAMG:  Solving for p, Initial residual = 0.489168, Final residual = 0.0413496, No Iterations 4
time step continuity errors : sum local = 8.64864e-13, global = -4.67647e-13, cumulative = -1.18357e-11
Pressure gradient source: uncorrected Ubar = 87.2548, pressure gradient = 4672.49
DILUPBiCGStab:  Solving for omega, Initial residual = 3.79741e-07, Final residual = 1.65548e-09, No Iterations 2
DILUPBiCGStab:  Solving for k, Initial residual = 0.0028119, Final residual = 1.97083e-05, No Iterations 3
bounding k, min: 0 max: 0.131566 average: 0.0243284
ExecutionTime = 1.88 s  ClockTime = 9 s

Time = 30

DILUPBiCGStab:  Solving for Ux, Initial residual = 0.00416421, Final residual = 3.06628e-05, No Iterations 3
DILUPBiCGStab:  Solving for Uy, Initial residual = 0.442424, Final residual = 0.00305056, No Iterations 4
DILUPBiCGStab:  Solving for Uz, Initial residual = 0.465489, Final residual = 0.00333911, No Iterations 4
Pressure gradient source: uncorrected Ubar = 87.2314, pressure gradient = 9222.51
GAMG:  Solving for p, Initial residual = 0.48336, Final residual = 0.0232413, No Iterations 5
time step continuity errors : sum local = 5.35911e-13, global = -3.13509e-13, cumulative = -1.21492e-11
Pressure gradient source: uncorrected Ubar = 87.2546, pressure gradient = 4756.73
DILUPBiCGStab:  Solving for omega, Initial residual = 3.5856e-07, Final residual = 1.5414e-09, No Iterations 2
DILUPBiCGStab:  Solving for k, Initial residual = 0.00307968, Final residual = 2.11488e-05, No Iterations 3
bounding k, min: 0 max: 0.148818 average: 0.0258361
ExecutionTime = 1.93 s  ClockTime = 9 s

Time = 31

DILUPBiCGStab:  Solving for Ux, Initial residual = 0.00403693, Final residual = 3.05374e-05, No Iterations 3
DILUPBiCGStab:  Solving for Uy, Initial residual = 0.506206, Final residual = 0.00341991, No Iterations 4
DILUPBiCGStab:  Solving for Uz, Initial residual = 0.307237, Final residual = 0.00228344, No Iterations 4
Pressure gradient source: uncorrected Ubar = 87.2322, pressure gradient = 9172.95
GAMG:  Solving for p, Initial residual = 0.515377, Final residual = 0.0400097, No Iterations 4
time step continuity errors : sum local = 9.1836e-13, global = -4.2826e-13, cumulative = -1.25775e-11
Pressure gradient source: uncorrected Ubar = 87.2546, pressure gradient = 4838.8
DILUPBiCGStab:  Solving for omega, Initial residual = 3.39486e-07, Final residual = 1.4321e-09, No Iterations 2
DILUPBiCGStab:  Solving for k, Initial residual = 0.00349351, Final residual = 2.3229e-05, No Iterations 3
bounding k, min: 0 max: 0.172743 average: 0.0276192
ExecutionTime = 1.98 s  ClockTime = 9 s

Time = 32

DILUPBiCGStab:  Solving for Ux, Initial residual = 0.0039195, Final residual = 3.11408e-05, No Iterations 3
DILUPBiCGStab:  Solving for Uy, Initial residual = 0.390635, Final residual = 0.00303019, No Iterations 4
DILUPBiCGStab:  Solving for Uz, Initial residual = 0.407816, Final residual = 0.00404719, No Iterations 4
Pressure gradient source: uncorrected Ubar = 87.2352, pressure gradient = 8655.73
GAMG:  Solving for p, Initial residual = 0.483809, Final residual = 0.0432634, No Iterations 4
time step continuity errors : sum local = 9.71048e-13, global = -4.9898e-13, cumulative = -1.30765e-11
Pressure gradient source: uncorrected Ubar = 87.2549, pressure gradient = 4856.14
DILUPBiCGStab:  Solving for omega, Initial residual = 3.21447e-07, Final residual = 1.31659e-09, No Iterations 2
DILUPBiCGStab:  Solving for k, Initial residual = 0.00403751, Final residual = 2.58324e-05, No Iterations 3
bounding k, min: 0 max: 0.205997 average: 0.0297867
ExecutionTime = 2.04 s  ClockTime = 9 s

Time = 33

DILUPBiCGStab:  Solving for Ux, Initial residual = 0.00380451, Final residual = 3.07852e-05, No Iterations 3
DILUPBiCGStab:  Solving for Uy, Initial residual = 0.296795, Final residual = 0.00192335, No Iterations 4
DILUPBiCGStab:  Solving for Uz, Initial residual = 0.511907, Final residual = 0.0034883, No Iterations 4
Pressure gradient source: uncorrected Ubar = 87.2332, pressure gradient = 9073.27
GAMG:  Solving for p, Initial residual = 0.487406, Final residual = 0.0356818, No Iterations 4
time step continuity errors : sum local = 4.79231e-13, global = -1.25032e-13, cumulative = -1.32015e-11
Pressure gradient source: uncorrected Ubar = 87.2546, pressure gradient = 4929.07
DILUPBiCGStab:  Solving for omega, Initial residual = 3.05122e-07, Final residual = 3.00771e-09, No Iterations 1
DILUPBiCGStab:  Solving for k, Initial residual = 0.0046568, Final residual = 2.87924e-05, No Iterations 3
bounding k, min: 0 max: 0.248173 average: 0.0324643
ExecutionTime = 2.1 s  ClockTime = 9 s

Time = 34

DILUPBiCGStab:  Solving for Ux, Initial residual = 0.00369685, Final residual = 3.04491e-05, No Iterations 3
DILUPBiCGStab:  Solving for Uy, Initial residual = 0.341098, Final residual = 0.00227729, No Iterations 4
DILUPBiCGStab:  Solving for Uz, Initial residual = 0.416557, Final residual = 0.00324511, No Iterations 4
Pressure gradient source: uncorrected Ubar = 87.2339, pressure gradient = 9024.09
GAMG:  Solving for p, Initial residual = 0.502533, Final residual = 0.0266428, No Iterations 5
time step continuity errors : sum local = 6.41103e-13, global = -4.41537e-13, cumulative = -1.3643e-11
Pressure gradient source: uncorrected Ubar = 87.2546, pressure gradient = 5000.95
DILUPBiCGStab:  Solving for omega, Initial residual = 2.90454e-07, Final residual = 1.25028e-09, No Iterations 2
DILUPBiCGStab:  Solving for k, Initial residual = 0.00531428, Final residual = 3.11418e-05, No Iterations 3
bounding k, min: 0 max: 0.302372 average: 0.0357594
ExecutionTime = 2.16 s  ClockTime = 10 s

Time = 35

DILUPBiCGStab:  Solving for Ux, Initial residual = 0.00359555, Final residual = 3.05241e-05, No Iterations 3
DILUPBiCGStab:  Solving for Uy, Initial residual = 0.473621, Final residual = 0.00319091, No Iterations 4
DILUPBiCGStab:  Solving for Uz, Initial residual = 0.634908, Final residual = 0.00525921, No Iterations 4
Pressure gradient source: uncorrected Ubar = 87.2357, pressure gradient = 8732.48
GAMG:  Solving for p, Initial residual = 0.438498, Final residual = 0.0209213, No Iterations 5
time step continuity errors : sum local = 6.30037e-13, global = -4.13468e-13, cumulative = -1.40565e-11
Pressure gradient source: uncorrected Ubar = 87.2548, pressure gradient = 5041.25
DILUPBiCGStab:  Solving for omega, Initial residual = 2.75851e-07, Final residual = 1.18887e-09, No Iterations 2
DILUPBiCGStab:  Solving for k, Initial residual = 0.00596158, Final residual = 3.27491e-05, No Iterations 3
bounding k, min: 0 max: 0.370843 average: 0.0397942
ExecutionTime = 2.23 s  ClockTime = 10 s

Time = 36

DILUPBiCGStab:  Solving for Ux, Initial residual = 0.00349912, Final residual = 3.01629e-05, No Iterations 3
DILUPBiCGStab:  Solving for Uy, Initial residual = 0.433158, Final residual = 0.00296503, No Iterations 5
DILUPBiCGStab:  Solving for Uz, Initial residual = 0.40552, Final residual = 0.00315555, No Iterations 4
Pressure gradient source: uncorrected Ubar = 87.2356, pressure gradient = 8805.4
GAMG:  Solving for p, Initial residual = 0.504408, Final residual = 0.038059, No Iterations 4
time step continuity errors : sum local = 7.40979e-13, global = -3.71896e-13, cumulative = -1.44284e-11
Pressure gradient source: uncorrected Ubar = 87.2547, pressure gradient = 5094.73
DILUPBiCGStab:  Solving for omega, Initial residual = 2.63088e-07, Final residual = 1.15775e-09, No Iterations 2
DILUPBiCGStab:  Solving for k, Initial residual = 0.00673743, Final residual = 3.43445e-05, No Iterations 3
bounding k, min: 0 max: 0.458273 average: 0.0448214
ExecutionTime = 2.29 s  ClockTime = 10 s

Time = 37

DILUPBiCGStab:  Solving for Ux, Initial residual = 0.00340747, Final residual = 2.99639e-05, No Iterations 3
DILUPBiCGStab:  Solving for Uy, Initial residual = 0.388531, Final residual = 0.00270988, No Iterations 4
DILUPBiCGStab:  Solving for Uz, Initial residual = 0.388367, Final residual = 0.00307551, No Iterations 4
Pressure gradient source: uncorrected Ubar = 87.2367, pressure gradient = 8653.86
GAMG:  Solving for p, Initial residual = 0.501543, Final residual = 0.0395555, No Iterations 4
time step continuity errors : sum local = 7.08945e-13, global = -2.85352e-13, cumulative = -1.47137e-11
Pressure gradient source: uncorrected Ubar = 87.2548, pressure gradient = 5134.45
DILUPBiCGStab:  Solving for omega, Initial residual = 2.5095e-07, Final residual = 1.13738e-09, No Iterations 2
DILUPBiCGStab:  Solving for k, Initial residual = 0.00755774, Final residual = 3.54152e-05, No Iterations 3
bounding k, min: 0 max: 0.570312 average: 0.0511161
ExecutionTime = 2.36 s  ClockTime = 10 s

Time = 38

DILUPBiCGStab:  Solving for Ux, Initial residual = 0.00331862, Final residual = 2.94011e-05, No Iterations 3
DILUPBiCGStab:  Solving for Uy, Initial residual = 0.382073, Final residual = 0.00274463, No Iterations 4
DILUPBiCGStab:  Solving for Uz, Initial residual = 0.509323, Final residual = 0.00426485, No Iterations 4
Pressure gradient source: uncorrected Ubar = 87.2364, pressure gradient = 8773.68
GAMG:  Solving for p, Initial residual = 0.449268, Final residual = 0.0332147, No Iterations 4
time step continuity errors : sum local = 7.40262e-13, global = -3.38311e-13, cumulative = -1.50521e-11
Pressure gradient source: uncorrected Ubar = 87.2547, pressure gradient = 5194.43
DILUPBiCGStab:  Solving for omega, Initial residual = 2.39608e-07, Final residual = 1.12641e-09, No Iterations 2
DILUPBiCGStab:  Solving for k, Initial residual = 0.00840431, Final residual = 3.6705e-05, No Iterations 3
bounding k, min: 0 max: 0.713851 average: 0.0590234
ExecutionTime = 2.43 s  ClockTime = 10 s

Time = 39

DILUPBiCGStab:  Solving for Ux, Initial residual = 0.00323464, Final residual = 2.91828e-05, No Iterations 3
DILUPBiCGStab:  Solving for Uy, Initial residual = 0.449298, Final residual = 0.00336843, No Iterations 4
DILUPBiCGStab:  Solving for Uz, Initial residual = 0.497682, Final residual = 0.00386259, No Iterations 4
Pressure gradient source: uncorrected Ubar = 87.2378, pressure gradient = 8546.21
GAMG:  Solving for p, Initial residual = 0.481307, Final residual = 0.0387476, No Iterations 4
time step continuity errors : sum local = 9.05699e-13, global = -4.76643e-13, cumulative = -1.55287e-11
Pressure gradient source: uncorrected Ubar = 87.2548, pressure gradient = 5231.42
DILUPBiCGStab:  Solving for omega, Initial residual = 2.29288e-07, Final residual = 1.12169e-09, No Iterations 2
DILUPBiCGStab:  Solving for k, Initial residual = 0.00925116, Final residual = 3.78617e-05, No Iterations 3
bounding k, min: 0 max: 0.897155 average: 0.0689722
ExecutionTime = 2.5 s  ClockTime = 10 s

Time = 40

DILUPBiCGStab:  Solving for Ux, Initial residual = 0.00315227, Final residual = 2.86817e-05, No Iterations 3
DILUPBiCGStab:  Solving for Uy, Initial residual = 0.44778, Final residual = 0.00345231, No Iterations 4
DILUPBiCGStab:  Solving for Uz, Initial residual = 0.456853, Final residual = 0.00373419, No Iterations 4
Pressure gradient source: uncorrected Ubar = 87.2377, pressure gradient = 8629.42
GAMG:  Solving for p, Initial residual = 0.504927, Final residual = 0.0297315, No Iterations 4
time step continuity errors : sum local = 6.48499e-13, global = -3.98455e-13, cumulative = -1.59272e-11
Pressure gradient source: uncorrected Ubar = 87.2547, pressure gradient = 5284.72
DILUPBiCGStab:  Solving for omega, Initial residual = 2.19439e-07, Final residual = 1.1162e-09, No Iterations 2
DILUPBiCGStab:  Solving for k, Initial residual = 0.0100672, Final residual = 9.79215e-05, No Iterations 2
bounding k, min: 0 max: 1.1301 average: 0.0814047
ExecutionTime = 2.57 s  ClockTime = 10 s

Time = 41

DILUPBiCGStab:  Solving for Ux, Initial residual = 0.00307506, Final residual = 2.85704e-05, No Iterations 3
DILUPBiCGStab:  Solving for Uy, Initial residual = 0.445086, Final residual = 0.00321619, No Iterations 4
DILUPBiCGStab:  Solving for Uz, Initial residual = 0.34265, Final residual = 0.0025983, No Iterations 4
Pressure gradient source: uncorrected Ubar = 87.2394, pressure gradient = 8334.66
GAMG:  Solving for p, Initial residual = 0.489707, Final residual = 0.0248041, No Iterations 4
time step continuity errors : sum local = 5.53533e-13, global = -3.49427e-13, cumulative = -1.62766e-11
Pressure gradient source: uncorrected Ubar = 87.2549, pressure gradient = 5306.18
DILUPBiCGStab:  Solving for omega, Initial residual = 2.10111e-07, Final residual = 1.10484e-09, No Iterations 2
DILUPBiCGStab:  Solving for k, Initial residual = 0.0108266, Final residual = 0.000100341, No Iterations 2
bounding k, min: 0 max: 1.42369 average: 0.0970044
ExecutionTime = 2.62 s  ClockTime = 10 s

Time = 42

DILUPBiCGStab:  Solving for Ux, Initial residual = 0.00299798, Final residual = 2.76774e-05, No Iterations 3
DILUPBiCGStab:  Solving for Uy, Initial residual = 0.430702, Final residual = 0.00261874, No Iterations 4
DILUPBiCGStab:  Solving for Uz, Initial residual = 0.383333, Final residual = 0.00346238, No Iterations 4
Pressure gradient source: uncorrected Ubar = 87.2378, pressure gradient = 8698.08
GAMG:  Solving for p, Initial residual = 0.477942, Final residual = 0.0375799, No Iterations 4
time step continuity errors : sum local = 9.61847e-13, global = -6.23984e-13, cumulative = -1.69006e-11
Pressure gradient source: uncorrected Ubar = 87.2546, pressure gradient = 5378.57
DILUPBiCGStab:  Solving for omega, Initial residual = 2.01527e-07, Final residual = 1.09837e-09, No Iterations 2
DILUPBiCGStab:  Solving for k, Initial residual = 0.0115212, Final residual = 0.000102279, No Iterations 2
bounding k, min: 0 max: 1.7903 average: 0.116532
ExecutionTime = 2.68 s  ClockTime = 10 s

Time = 43

DILUPBiCGStab:  Solving for Ux, Initial residual = 0.0029241, Final residual = 2.67645e-05, No Iterations 3
DILUPBiCGStab:  Solving for Uy, Initial residual = 0.445316, Final residual = 0.0037659, No Iterations 4
DILUPBiCGStab:  Solving for Uz, Initial residual = 0.507415, Final residual = 0.00422508, No Iterations 4
Pressure gradient source: uncorrected Ubar = 87.2385, pressure gradient = 8663.58
GAMG:  Solving for p, Initial residual = 0.481381, Final residual = 0.0309601, No Iterations 4
time step continuity errors : sum local = 9.78354e-13, global = -6.03923e-13, cumulative = -1.75045e-11
Pressure gradient source: uncorrected Ubar = 87.2546, pressure gradient = 5454.76
DILUPBiCGStab:  Solving for omega, Initial residual = 1.93299e-07, Final residual = 1.0999e-09, No Iterations 2
DILUPBiCGStab:  Solving for k, Initial residual = 0.0121159, Final residual = 0.000103391, No Iterations 2
bounding k, min: 0 max: 2.24257 average: 0.140855
ExecutionTime = 2.74 s  ClockTime = 10 s

Time = 44

DILUPBiCGStab:  Solving for Ux, Initial residual = 0.0028527, Final residual = 2.60224e-05, No Iterations 3
DILUPBiCGStab:  Solving for Uy, Initial residual = 0.372555, Final residual = 0.00256912, No Iterations 4
DILUPBiCGStab:  Solving for Uz, Initial residual = 0.333932, Final residual = 0.00287434, No Iterations 4
Pressure gradient source: uncorrected Ubar = 87.2395, pressure gradient = 8554.89
GAMG:  Solving for p, Initial residual = 0.478748, Final residual = 0.0455323, No Iterations 3
time step continuity errors : sum local = 7.81944e-13, global = -2.8881e-13, cumulative = -1.77933e-11
Pressure gradient source: uncorrected Ubar = 87.2546, pressure gradient = 5525.36
DILUPBiCGStab:  Solving for omega, Initial residual = 1.85482e-07, Final residual = 1.1088e-09, No Iterations 2
DILUPBiCGStab:  Solving for k, Initial residual = 0.0126132, Final residual = 0.000104046, No Iterations 2
bounding k, min: 0 max: 2.79218 average: 0.170987
ExecutionTime = 2.79 s  ClockTime = 10 s

Time = 45

DILUPBiCGStab:  Solving for Ux, Initial residual = 0.00278279, Final residual = 2.51921e-05, No Iterations 3
DILUPBiCGStab:  Solving for Uy, Initial residual = 0.488567, Final residual = 0.00368073, No Iterations 4
DILUPBiCGStab:  Solving for Uz, Initial residual = 0.5651, Final residual = 0.0043111, No Iterations 4
Pressure gradient source: uncorrected Ubar = 87.2399, pressure gradient = 8574.6
GAMG:  Solving for p, Initial residual = 0.494002, Final residual = 0.0432405, No Iterations 4
time step continuity errors : sum local = 9.13173e-13, global = -3.29334e-13, cumulative = -1.81226e-11
Pressure gradient source: uncorrected Ubar = 87.2546, pressure gradient = 5606.19
DILUPBiCGStab:  Solving for omega, Initial residual = 1.78203e-07, Final residual = 1.12317e-09, No Iterations 2
DILUPBiCGStab:  Solving for k, Initial residual = 0.0129879, Final residual = 0.000103622, No Iterations 2
bounding k, min: 0 max: 3.44848 average: 0.208014
ExecutionTime = 2.85 s  ClockTime = 10 s

Time = 46

DILUPBiCGStab:  Solving for Ux, Initial residual = 0.0027145, Final residual = 2.44427e-05, No Iterations 3
DILUPBiCGStab:  Solving for Uy, Initial residual = 0.527002, Final residual = 0.00478129, No Iterations 4
DILUPBiCGStab:  Solving for Uz, Initial residual = 0.654042, Final residual = 0.00459265, No Iterations 4
Pressure gradient source: uncorrected Ubar = 87.2406, pressure gradient = 8552.15
GAMG:  Solving for p, Initial residual = 0.455649, Final residual = 0.0345826, No Iterations 4
time step continuity errors : sum local = 8.26808e-13, global = -4.38536e-13, cumulative = -1.85612e-11
Pressure gradient source: uncorrected Ubar = 87.2546, pressure gradient = 5691.51
DILUPBiCGStab:  Solving for omega, Initial residual = 1.71159e-07, Final residual = 1.1467e-09, No Iterations 2
DILUPBiCGStab:  Solving for k, Initial residual = 0.0132519, Final residual = 0.000102868, No Iterations 2
bounding k, min: 0 max: 4.21717 average: 0.253121
ExecutionTime = 2.91 s  ClockTime = 10 s

Time = 47

DILUPBiCGStab:  Solving for Ux, Initial residual = 0.0026477, Final residual = 2.37917e-05, No Iterations 3
DILUPBiCGStab:  Solving for Uy, Initial residual = 0.411078, Final residual = 0.00340624, No Iterations 4
DILUPBiCGStab:  Solving for Uz, Initial residual = 0.314551, Final residual = 0.00233277, No Iterations 4
Pressure gradient source: uncorrected Ubar = 87.2409, pressure gradient = 8604.26
GAMG:  Solving for p, Initial residual = 0.480584, Final residual = 0.0371663, No Iterations 4
time step continuity errors : sum local = 1.02722e-12, global = -7.03046e-13, cumulative = -1.92642e-11
Pressure gradient source: uncorrected Ubar = 87.2545, pressure gradient = 5789.79
DILUPBiCGStab:  Solving for omega, Initial residual = 1.64436e-07, Final residual = 1.18173e-09, No Iterations 2
DILUPBiCGStab:  Solving for k, Initial residual = 0.0133896, Final residual = 0.000101047, No Iterations 2
bounding k, min: 0 max: 5.09936 average: 0.30748
ExecutionTime = 2.97 s  ClockTime = 10 s

Time = 48

DILUPBiCGStab:  Solving for Ux, Initial residual = 0.00258141, Final residual = 2.33958e-05, No Iterations 3
DILUPBiCGStab:  Solving for Uy, Initial residual = 0.293391, Final residual = 0.00186614, No Iterations 4
DILUPBiCGStab:  Solving for Uz, Initial residual = 0.322661, Final residual = 0.00216429, No Iterations 4
Pressure gradient source: uncorrected Ubar = 87.2412, pressure gradient = 8670.21
GAMG:  Solving for p, Initial residual = 0.45674, Final residual = 0.0350891, No Iterations 4
time step continuity errors : sum local = 9.20484e-13, global = -6.26368e-13, cumulative = -1.98906e-11
Pressure gradient source: uncorrected Ubar = 87.2545, pressure gradient = 5900.48
DILUPBiCGStab:  Solving for omega, Initial residual = 1.58265e-07, Final residual = 1.22249e-09, No Iterations 2
DILUPBiCGStab:  Solving for k, Initial residual = 0.0134222, Final residual = 9.94489e-05, No Iterations 2
bounding k, min: 0 max: 6.09115 average: 0.372259
ExecutionTime = 3.02 s  ClockTime = 10 s

Time = 49

DILUPBiCGStab:  Solving for Ux, Initial residual = 0.00251687, Final residual = 2.31382e-05, No Iterations 3
DILUPBiCGStab:  Solving for Uy, Initial residual = 0.395097, Final residual = 0.00272227, No Iterations 4
DILUPBiCGStab:  Solving for Uz, Initial residual = 0.155184, Final residual = 0.00126205, No Iterations 4
Pressure gradient source: uncorrected Ubar = 87.2415, pressure gradient = 8763.63
GAMG:  Solving for p, Initial residual = 0.473632, Final residual = 0.0251834, No Iterations 4
time step continuity errors : sum local = 7.03278e-13, global = -4.38328e-13, cumulative = -2.03289e-11
Pressure gradient source: uncorrected Ubar = 87.2544, pressure gradient = 6022.75
DILUPBiCGStab:  Solving for omega, Initial residual = 1.52442e-07, Final residual = 1.27234e-09, No Iterations 2
DILUPBiCGStab:  Solving for k, Initial residual = 0.013345, Final residual = 9.69988e-05, No Iterations 2
bounding k, min: 0 max: 7.18422 average: 0.448497
ExecutionTime = 3.07 s  ClockTime = 10 s

Time = 50

DILUPBiCGStab:  Solving for Ux, Initial residual = 0.00245226, Final residual = 2.29747e-05, No Iterations 3
DILUPBiCGStab:  Solving for Uy, Initial residual = 0.355992, Final residual = 0.00240504, No Iterations 4
DILUPBiCGStab:  Solving for Uz, Initial residual = 0.293529, Final residual = 0.00215492, No Iterations 4
Pressure gradient source: uncorrected Ubar = 87.2414, pressure gradient = 8945.56
GAMG:  Solving for p, Initial residual = 0.423445, Final residual = 0.0363815, No Iterations 4
time step continuity errors : sum local = 9.72373e-13, global = -7.7732e-13, cumulative = -2.11062e-11
Pressure gradient source: uncorrected Ubar = 87.2544, pressure gradient = 6161.28
DILUPBiCGStab:  Solving for omega, Initial residual = 1.47015e-07, Final residual = 1.32254e-09, No Iterations 2
DILUPBiCGStab:  Solving for k, Initial residual = 0.0131814, Final residual = 9.4781e-05, No Iterations 2
bounding k, min: 0 max: 8.3823 average: 0.537109
ExecutionTime = 3.13 s  ClockTime = 10 s

Time = 51

DILUPBiCGStab:  Solving for Ux, Initial residual = 0.00238841, Final residual = 2.28967e-05, No Iterations 3
DILUPBiCGStab:  Solving for Uy, Initial residual = 0.41359, Final residual = 0.00350411, No Iterations 4
DILUPBiCGStab:  Solving for Uz, Initial residual = 0.46528, Final residual = 0.00421416, No Iterations 4
Pressure gradient source: uncorrected Ubar = 87.241, pressure gradient = 9216.4
GAMG:  Solving for p, Initial residual = 0.418425, Final residual = 0.0230518, No Iterations 5
time step continuity errors : sum local = 7.26517e-13, global = -5.66369e-13, cumulative = -2.16726e-11
Pressure gradient source: uncorrected Ubar = 87.2543, pressure gradient = 6320.05
DILUPBiCGStab:  Solving for omega, Initial residual = 1.42034e-07, Final residual = 1.37158e-09, No Iterations 2
DILUPBiCGStab:  Solving for k, Initial residual = 0.0129404, Final residual = 9.21915e-05, No Iterations 2
bounding k, min: 0 max: 9.68933 average: 0.638808
ExecutionTime = 3.18 s  ClockTime = 11 s

Time = 52

DILUPBiCGStab:  Solving for Ux, Initial residual = 0.00232532, Final residual = 2.29548e-05, No Iterations 3
DILUPBiCGStab:  Solving for Uy, Initial residual = 0.454717, Final residual = 0.0036401, No Iterations 4
DILUPBiCGStab:  Solving for Uz, Initial residual = 0.422657, Final residual = 0.00264602, No Iterations 5
Pressure gradient source: uncorrected Ubar = 87.2406, pressure gradient = 9524.75
GAMG:  Solving for p, Initial residual = 0.451167, Final residual = 0.0290358, No Iterations 4
time step continuity errors : sum local = 7.13527e-13, global = -5.19984e-13, cumulative = -2.21926e-11
Pressure gradient source: uncorrected Ubar = 87.2542, pressure gradient = 6495.45
DILUPBiCGStab:  Solving for omega, Initial residual = 1.37404e-07, Final residual = 5.42926e-10, No Iterations 2
DILUPBiCGStab:  Solving for k, Initial residual = 0.0125274, Final residual = 8.83275e-05, No Iterations 2
bounding k, min: 0 max: 11.0235 average: 0.753506
ExecutionTime = 3.23 s  ClockTime = 11 s

Time = 53

DILUPBiCGStab:  Solving for Ux, Initial residual = 0.00226532, Final residual = 1.29182e-05, No Iterations 4
DILUPBiCGStab:  Solving for Uy, Initial residual = 0.3644, Final residual = 0.00221568, No Iterations 4
DILUPBiCGStab:  Solving for Uz, Initial residual = 0.502881, Final residual = 0.00396733, No Iterations 4
Pressure gradient source: uncorrected Ubar = 87.2445, pressure gradient = 8879.73
GAMG:  Solving for p, Initial residual = 0.460301, Final residual = 0.0458858, No Iterations 4
time step continuity errors : sum local = 7.76736e-13, global = -3.76512e-13, cumulative = -2.25691e-11
Pressure gradient source: uncorrected Ubar = 87.2542, pressure gradient = 6679.82
DILUPBiCGStab:  Solving for omega, Initial residual = 1.32847e-07, Final residual = 5.49511e-10, No Iterations 2
DILUPBiCGStab:  Solving for k, Initial residual = 0.0118344, Final residual = 8.40169e-05, No Iterations 2
bounding k, min: 0 max: 12.2933 average: 0.879716
ExecutionTime = 3.29 s  ClockTime = 11 s

Time = 54

DILUPBiCGStab:  Solving for Ux, Initial residual = 0.00221067, Final residual = 1.21105e-05, No Iterations 4
DILUPBiCGStab:  Solving for Uy, Initial residual = 0.423765, Final residual = 0.00337288, No Iterations 4
DILUPBiCGStab:  Solving for Uz, Initial residual = 0.370753, Final residual = 0.00236368, No Iterations 5
Pressure gradient source: uncorrected Ubar = 87.2443, pressure gradient = 9144.17
GAMG:  Solving for p, Initial residual = 0.419534, Final residual = 0.0353009, No Iterations 4
time step continuity errors : sum local = 9.41319e-13, global = -7.22249e-13, cumulative = -2.32913e-11
Pressure gradient source: uncorrected Ubar = 87.2542, pressure gradient = 6869.74
DILUPBiCGStab:  Solving for omega, Initial residual = 1.28499e-07, Final residual = 5.5524e-10, No Iterations 2
DILUPBiCGStab:  Solving for k, Initial residual = 0.0110512, Final residual = 7.96757e-05, No Iterations 2
bounding k, min: 0 max: 13.4956 average: 1.01605
ExecutionTime = 3.34 s  ClockTime = 11 s

Time = 55

DILUPBiCGStab:  Solving for Ux, Initial residual = 0.00215635, Final residual = 1.13519e-05, No Iterations 4
DILUPBiCGStab:  Solving for Uy, Initial residual = 0.357437, Final residual = 0.00244104, No Iterations 4
DILUPBiCGStab:  Solving for Uz, Initial residual = 0.293241, Final residual = 0.00278632, No Iterations 4
Pressure gradient source: uncorrected Ubar = 87.2439, pressure gradient = 9481.19
GAMG:  Solving for p, Initial residual = 0.46453, Final residual = 0.0317233, No Iterations 4
time step continuity errors : sum local = 9.53771e-13, global = -6.90888e-13, cumulative = -2.39822e-11
Pressure gradient source: uncorrected Ubar = 87.2541, pressure gradient = 7072.95
DILUPBiCGStab:  Solving for omega, Initial residual = 1.24486e-07, Final residual = 5.54535e-10, No Iterations 2
DILUPBiCGStab:  Solving for k, Initial residual = 0.0102935, Final residual = 7.61049e-05, No Iterations 2
bounding k, min: 0 max: 14.6924 average: 1.16143
ExecutionTime = 3.4 s  ClockTime = 11 s

Time = 56

DILUPBiCGStab:  Solving for Ux, Initial residual = 0.0021025, Final residual = 1.07491e-05, No Iterations 4
DILUPBiCGStab:  Solving for Uy, Initial residual = 0.373998, Final residual = 0.00268935, No Iterations 4
DILUPBiCGStab:  Solving for Uz, Initial residual = 0.292183, Final residual = 0.00232312, No Iterations 4
Pressure gradient source: uncorrected Ubar = 87.2436, pressure gradient = 9806.64
GAMG:  Solving for p, Initial residual = 0.440705, Final residual = 0.039526, No Iterations 4
time step continuity errors : sum local = 1.00748e-12, global = -6.48859e-13, cumulative = -2.46311e-11
Pressure gradient source: uncorrected Ubar = 87.2541, pressure gradient = 7287.81
DILUPBiCGStab:  Solving for omega, Initial residual = 1.20461e-07, Final residual = 5.46094e-10, No Iterations 2
DILUPBiCGStab:  Solving for k, Initial residual = 0.00960261, Final residual = 7.26361e-05, No Iterations 2
bounding k, min: 0 max: 15.8467 average: 1.315
ExecutionTime = 3.45 s  ClockTime = 11 s

Time = 57

DILUPBiCGStab:  Solving for Ux, Initial residual = 0.00204818, Final residual = 1.01981e-05, No Iterations 4
DILUPBiCGStab:  Solving for Uy, Initial residual = 0.375179, Final residual = 0.00258017, No Iterations 4
DILUPBiCGStab:  Solving for Uz, Initial residual = 0.367193, Final residual = 0.0027204, No Iterations 4
Pressure gradient source: uncorrected Ubar = 87.2432, pressure gradient = 10159.6
GAMG:  Solving for p, Initial residual = 0.431019, Final residual = 0.0428378, No Iterations 3
time step continuity errors : sum local = 7.91605e-13, global = -5.26594e-13, cumulative = -2.51577e-11
Pressure gradient source: uncorrected Ubar = 87.2541, pressure gradient = 7517.34
DILUPBiCGStab:  Solving for omega, Initial residual = 1.16632e-07, Final residual = 5.31045e-10, No Iterations 2
DILUPBiCGStab:  Solving for k, Initial residual = 0.00897975, Final residual = 6.9607e-05, No Iterations 2
bounding k, min: 0 max: 16.9738 average: 1.47599
ExecutionTime = 3.5 s  ClockTime = 11 s

Time = 58

DILUPBiCGStab:  Solving for Ux, Initial residual = 0.00199253, Final residual = 9.56309e-06, No Iterations 4
DILUPBiCGStab:  Solving for Uy, Initial residual = 0.425909, Final residual = 0.0030081, No Iterations 4
DILUPBiCGStab:  Solving for Uz, Initial residual = 0.312837, Final residual = 0.00254484, No Iterations 4
Pressure gradient source: uncorrected Ubar = 87.2428, pressure gradient = 10575.7
GAMG:  Solving for p, Initial residual = 0.440361, Final residual = 0.0234223, No Iterations 4
time step continuity errors : sum local = 8.57654e-13, global = -5.25639e-13, cumulative = -2.56833e-11
Pressure gradient source: uncorrected Ubar = 87.254, pressure gradient = 7768.48
DILUPBiCGStab:  Solving for omega, Initial residual = 1.12877e-07, Final residual = 5.11209e-10, No Iterations 2
DILUPBiCGStab:  Solving for k, Initial residual = 0.00843099, Final residual = 6.70543e-05, No Iterations 2
bounding k, min: 0 max: 18.0788 average: 1.64383
ExecutionTime = 3.56 s  ClockTime = 11 s

Time = 59

DILUPBiCGStab:  Solving for Ux, Initial residual = 0.00193642, Final residual = 9.01464e-06, No Iterations 4
DILUPBiCGStab:  Solving for Uy, Initial residual = 0.397944, Final residual = 0.00298744, No Iterations 4
DILUPBiCGStab:  Solving for Uz, Initial residual = 0.28476, Final residual = 0.00216358, No Iterations 4
Pressure gradient source: uncorrected Ubar = 87.2429, pressure gradient = 10860.6
GAMG:  Solving for p, Initial residual = 0.417643, Final residual = 0.0280725, No Iterations 4
time step continuity errors : sum local = 8.00051e-13, global = -5.98871e-13, cumulative = -2.62822e-11
Pressure gradient source: uncorrected Ubar = 87.254, pressure gradient = 8026
DILUPBiCGStab:  Solving for omega, Initial residual = 1.09245e-07, Final residual = 4.89771e-10, No Iterations 2
DILUPBiCGStab:  Solving for k, Initial residual = 0.007945, Final residual = 6.45699e-05, No Iterations 2
bounding k, min: 0 max: 19.1631 average: 1.81798
ExecutionTime = 3.61 s  ClockTime = 11 s

Time = 60

DILUPBiCGStab:  Solving for Ux, Initial residual = 0.0018797, Final residual = 8.4747e-06, No Iterations 4
DILUPBiCGStab:  Solving for Uy, Initial residual = 0.33594, Final residual = 0.00199034, No Iterations 4
DILUPBiCGStab:  Solving for Uz, Initial residual = 0.373769, Final residual = 0.00259701, No Iterations 4
Pressure gradient source: uncorrected Ubar = 87.2429, pressure gradient = 11189.8
GAMG:  Solving for p, Initial residual = 0.411713, Final residual = 0.0322821, No Iterations 4
time step continuity errors : sum local = 8.01496e-13, global = -6.17516e-13, cumulative = -2.68997e-11
Pressure gradient source: uncorrected Ubar = 87.254, pressure gradient = 8294.51
DILUPBiCGStab:  Solving for omega, Initial residual = 1.05647e-07, Final residual = 4.68314e-10, No Iterations 2
DILUPBiCGStab:  Solving for k, Initial residual = 0.00751672, Final residual = 6.24087e-05, No Iterations 2
bounding k, min: 0 max: 20.2287 average: 1.99801
ExecutionTime = 3.67 s  ClockTime = 11 s

Time = 61

DILUPBiCGStab:  Solving for Ux, Initial residual = 0.00182266, Final residual = 1.78031e-05, No Iterations 3
DILUPBiCGStab:  Solving for Uy, Initial residual = 0.458138, Final residual = 0.00450692, No Iterations 4
DILUPBiCGStab:  Solving for Uz, Initial residual = 0.410426, Final residual = 0.0026625, No Iterations 4
Pressure gradient source: uncorrected Ubar = 87.2391, pressure gradient = 12534.3
GAMG:  Solving for p, Initial residual = 0.428289, Final residual = 0.0364069, No Iterations 4
time step continuity errors : sum local = 6.98114e-13, global = -4.73096e-13, cumulative = -2.73728e-11
Pressure gradient source: uncorrected Ubar = 87.2539, pressure gradient = 8581.04
DILUPBiCGStab:  Solving for omega, Initial residual = 1.02321e-07, Final residual = 4.49274e-10, No Iterations 2
DILUPBiCGStab:  Solving for k, Initial residual = 0.00713716, Final residual = 6.0432e-05, No Iterations 2
bounding k, min: 0 max: 21.2771 average: 2.1835
ExecutionTime = 3.72 s  ClockTime = 11 s

Time = 62

DILUPBiCGStab:  Solving for Ux, Initial residual = 0.00176572, Final residual = 1.64382e-05, No Iterations 3
DILUPBiCGStab:  Solving for Uy, Initial residual = 0.486718, Final residual = 0.00312259, No Iterations 4
DILUPBiCGStab:  Solving for Uz, Initial residual = 0.389898, Final residual = 0.00266866, No Iterations 4
Pressure gradient source: uncorrected Ubar = 87.239, pressure gradient = 12973.9
GAMG:  Solving for p, Initial residual = 0.408992, Final residual = 0.0274776, No Iterations 4
time step continuity errors : sum local = 6.09886e-13, global = -3.77341e-13, cumulative = -2.77502e-11
Pressure gradient source: uncorrected Ubar = 87.2538, pressure gradient = 8899.13
DILUPBiCGStab:  Solving for omega, Initial residual = 9.91749e-08, Final residual = 4.32068e-10, No Iterations 2
DILUPBiCGStab:  Solving for k, Initial residual = 0.00680486, Final residual = 5.84521e-05, No Iterations 2
bounding k, min: 0 max: 22.3323 average: 2.3742
ExecutionTime = 3.77 s  ClockTime = 11 s

Time = 63

DILUPBiCGStab:  Solving for Ux, Initial residual = 0.00170925, Final residual = 1.52146e-05, No Iterations 3
DILUPBiCGStab:  Solving for Uy, Initial residual = 0.397897, Final residual = 0.00234998, No Iterations 4
DILUPBiCGStab:  Solving for Uz, Initial residual = 0.379073, Final residual = 0.00258653, No Iterations 4
Pressure gradient source: uncorrected Ubar = 87.2402, pressure gradient = 13057.9
GAMG:  Solving for p, Initial residual = 0.403325, Final residual = 0.0249922, No Iterations 4
time step continuity errors : sum local = 4.83645e-13, global = -2.00108e-13, cumulative = -2.79503e-11
Pressure gradient source: uncorrected Ubar = 87.2539, pressure gradient = 9204.04
DILUPBiCGStab:  Solving for omega, Initial residual = 9.60623e-08, Final residual = 4.14209e-10, No Iterations 2
DILUPBiCGStab:  Solving for k, Initial residual = 0.00649966, Final residual = 5.67574e-05, No Iterations 2
bounding k, min: 0 max: 23.3769 average: 2.56966
ExecutionTime = 3.82 s  ClockTime = 11 s

Time = 64

DILUPBiCGStab:  Solving for Ux, Initial residual = 0.00165424, Final residual = 1.39655e-05, No Iterations 3
DILUPBiCGStab:  Solving for Uy, Initial residual = 0.457045, Final residual = 0.00431739, No Iterations 4
DILUPBiCGStab:  Solving for Uz, Initial residual = 0.505124, Final residual = 0.00352745, No Iterations 4
Pressure gradient source: uncorrected Ubar = 87.2408, pressure gradient = 13290.9
GAMG:  Solving for p, Initial residual = 0.425117, Final residual = 0.0338205, No Iterations 4
time step continuity errors : sum local = 5.54365e-13, global = -3.73186e-13, cumulative = -2.83234e-11
Pressure gradient source: uncorrected Ubar = 87.2539, pressure gradient = 9513.15
DILUPBiCGStab:  Solving for omega, Initial residual = 9.32024e-08, Final residual = 3.99003e-10, No Iterations 2
DILUPBiCGStab:  Solving for k, Initial residual = 0.00622901, Final residual = 5.50185e-05, No Iterations 2
bounding k, min: 0 max: 24.4046 average: 2.76961
ExecutionTime = 3.88 s  ClockTime = 11 s

Time = 65

DILUPBiCGStab:  Solving for Ux, Initial residual = 0.00159998, Final residual = 1.2736e-05, No Iterations 3
DILUPBiCGStab:  Solving for Uy, Initial residual = 0.354724, Final residual = 0.00327354, No Iterations 4
DILUPBiCGStab:  Solving for Uz, Initial residual = 0.487309, Final residual = 0.00309516, No Iterations 4
Pressure gradient source: uncorrected Ubar = 87.2413, pressure gradient = 13541.7
GAMG:  Solving for p, Initial residual = 0.355363, Final residual = 0.0269819, No Iterations 4
time step continuity errors : sum local = 5.19927e-13, global = -2.45524e-13, cumulative = -2.8569e-11
Pressure gradient source: uncorrected Ubar = 87.2539, pressure gradient = 9828.46
DILUPBiCGStab:  Solving for omega, Initial residual = 9.04635e-08, Final residual = 3.85708e-10, No Iterations 2
DILUPBiCGStab:  Solving for k, Initial residual = 0.00598743, Final residual = 5.32637e-05, No Iterations 2
bounding k, min: 0 max: 25.417 average: 2.97383
ExecutionTime = 3.94 s  ClockTime = 11 s

Time = 66

DILUPBiCGStab:  Solving for Ux, Initial residual = 0.00154803, Final residual = 1.16047e-05, No Iterations 3
DILUPBiCGStab:  Solving for Uy, Initial residual = 0.504843, Final residual = 0.00296622, No Iterations 4
DILUPBiCGStab:  Solving for Uz, Initial residual = 0.353555, Final residual = 0.00184906, No Iterations 4
Pressure gradient source: uncorrected Ubar = 87.242, pressure gradient = 13751.5
GAMG:  Solving for p, Initial residual = 0.37941, Final residual = 0.0207566, No Iterations 4
time step continuity errors : sum local = 5.45955e-13, global = -4.3742e-13, cumulative = -2.90064e-11
Pressure gradient source: uncorrected Ubar = 87.254, pressure gradient = 10144.2
DILUPBiCGStab:  Solving for omega, Initial residual = 8.78799e-08, Final residual = 3.72378e-10, No Iterations 2
DILUPBiCGStab:  Solving for k, Initial residual = 0.0057613, Final residual = 5.17578e-05, No Iterations 2
bounding k, min: 0 max: 26.4139 average: 3.18192
ExecutionTime = 3.99 s  ClockTime = 11 s

Time = 67

DILUPBiCGStab:  Solving for Ux, Initial residual = 0.00149757, Final residual = 1.04685e-05, No Iterations 3
DILUPBiCGStab:  Solving for Uy, Initial residual = 0.412444, Final residual = 0.00234587, No Iterations 4
DILUPBiCGStab:  Solving for Uz, Initial residual = 0.324611, Final residual = 0.00207912, No Iterations 4
Pressure gradient source: uncorrected Ubar = 87.2423, pressure gradient = 14086.7
GAMG:  Solving for p, Initial residual = 0.362317, Final residual = 0.0248081, No Iterations 4
time step continuity errors : sum local = 7.98657e-13, global = -6.82208e-13, cumulative = -2.96886e-11
Pressure gradient source: uncorrected Ubar = 87.2539, pressure gradient = 10476.2
DILUPBiCGStab:  Solving for omega, Initial residual = 8.54423e-08, Final residual = 3.62999e-10, No Iterations 2
DILUPBiCGStab:  Solving for k, Initial residual = 0.00555713, Final residual = 5.03109e-05, No Iterations 2
bounding k, min: 0 max: 27.3955 average: 3.39366
ExecutionTime = 4.04 s  ClockTime = 11 s

Time = 68

DILUPBiCGStab:  Solving for Ux, Initial residual = 0.0014484, Final residual = 9.39051e-06, No Iterations 3
DILUPBiCGStab:  Solving for Uy, Initial residual = 0.392939, Final residual = 0.00202462, No Iterations 4
DILUPBiCGStab:  Solving for Uz, Initial residual = 0.382592, Final residual = 0.00324801, No Iterations 4
Pressure gradient source: uncorrected Ubar = 87.2426, pressure gradient = 14411.1
GAMG:  Solving for p, Initial residual = 0.374767, Final residual = 0.0300226, No Iterations 5
time step continuity errors : sum local = 9.16997e-13, global = -6.754e-13, cumulative = -3.0364e-11
Pressure gradient source: uncorrected Ubar = 87.2539, pressure gradient = 10823
DILUPBiCGStab:  Solving for omega, Initial residual = 8.31778e-08, Final residual = 3.56503e-10, No Iterations 2
DILUPBiCGStab:  Solving for k, Initial residual = 0.00537356, Final residual = 4.88687e-05, No Iterations 2
bounding k, min: 0 max: 28.3633 average: 3.60887
ExecutionTime = 4.11 s  ClockTime = 11 s

Time = 69

DILUPBiCGStab:  Solving for Ux, Initial residual = 0.00140105, Final residual = 1.35722e-05, No Iterations 3
DILUPBiCGStab:  Solving for Uy, Initial residual = 0.46782, Final residual = 0.00323183, No Iterations 3
DILUPBiCGStab:  Solving for Uz, Initial residual = 0.256125, Final residual = 0.00208889, No Iterations 4
Pressure gradient source: uncorrected Ubar = 87.2407, pressure gradient = 15485.6
GAMG:  Solving for p, Initial residual = 0.37274, Final residual = 0.0314553, No Iterations 4
time step continuity errors : sum local = 1.05417e-12, global = -8.22538e-13, cumulative = -3.11865e-11
Pressure gradient source: uncorrected Ubar = 87.2539, pressure gradient = 11171
DILUPBiCGStab:  Solving for omega, Initial residual = 8.11325e-08, Final residual = 3.50804e-10, No Iterations 2
DILUPBiCGStab:  Solving for k, Initial residual = 0.00520484, Final residual = 4.74096e-05, No Iterations 2
bounding k, min: 0 max: 29.3189 average: 3.82732
ExecutionTime = 4.17 s  ClockTime = 12 s

Time = 70

DILUPBiCGStab:  Solving for Ux, Initial residual = 0.00135669, Final residual = 1.19475e-05, No Iterations 3
DILUPBiCGStab:  Solving for Uy, Initial residual = 0.328337, Final residual = 0.00199305, No Iterations 4
DILUPBiCGStab:  Solving for Uz, Initial residual = 0.27523, Final residual = 0.00254813, No Iterations 4
Pressure gradient source: uncorrected Ubar = 87.2416, pressure gradient = 15661.2
[...]
DILUPBiCGStab:  Solving for Uz, Initial residual = 0.421719, Final residual = 0.00140168, No Iterations 3
Pressure gradient source: uncorrected Ubar = 87.255, pressure gradient = 33614.2
GAMG:  Solving for p, Initial residual = 0.39767, Final residual = 0.0182255, No Iterations 5
time step continuity errors : sum local = 9.32802e-13, global = -7.47675e-13, cumulative = -1.03961e-09
Pressure gradient source: uncorrected Ubar = 87.255, pressure gradient = 33605.8
DILUPBiCGStab:  Solving for omega, Initial residual = 1.05177e-10, Final residual = 6.04178e-13, No Iterations 1
DILUPBiCGStab:  Solving for k, Initial residual = 3.96635e-06, Final residual = 1.63511e-08, No Iterations 2
bounding k, min: 0 max: 81.7533 average: 29.2365
ExecutionTime = 87.71 s  ClockTime = 95 s

Time = 1522

DILUPBiCGStab:  Solving for Ux, Initial residual = 5.58089e-06, Final residual = 3.61877e-08, No Iterations 2
DILUPBiCGStab:  Solving for Uy, Initial residual = 0.471245, Final residual = 0.00139767, No Iterations 3
DILUPBiCGStab:  Solving for Uz, Initial residual = 0.444909, Final residual = 0.00131469, No Iterations 3
Pressure gradient source: uncorrected Ubar = 87.255, pressure gradient = 33614.5
GAMG:  Solving for p, Initial residual = 0.326199, Final residual = 0.0323205, No Iterations 5
time step continuity errors : sum local = 1.08137e-12, global = -7.967e-13, cumulative = -1.0404e-09
Pressure gradient source: uncorrected Ubar = 87.255, pressure gradient = 33606.1
DILUPBiCGStab:  Solving for omega, Initial residual = 1.04884e-10, Final residual = 6.0263e-13, No Iterations 1
DILUPBiCGStab:  Solving for k, Initial residual = 3.95649e-06, Final residual = 1.6308e-08, No Iterations 2
bounding k, min: 0 max: 81.7541 average: 29.2366
ExecutionTime = 87.77 s  ClockTime = 95 s

Time = 1523

DILUPBiCGStab:  Solving for Ux, Initial residual = 5.56532e-06, Final residual = 3.60897e-08, No Iterations 2
DILUPBiCGStab:  Solving for Uy, Initial residual = 0.400172, Final residual = 0.00387953, No Iterations 2
DILUPBiCGStab:  Solving for Uz, Initial residual = 0.543025, Final residual = 0.00505399, No Iterations 2
Pressure gradient source: uncorrected Ubar = 87.255, pressure gradient = 33614.9
GAMG:  Solving for p, Initial residual = 0.28492, Final residual = 0.0170147, No Iterations 5
time step continuity errors : sum local = 5.74394e-13, global = -3.53379e-13, cumulative = -1.04076e-09
Pressure gradient source: uncorrected Ubar = 87.255, pressure gradient = 33606.5
DILUPBiCGStab:  Solving for omega, Initial residual = 1.04591e-10, Final residual = 6.01085e-13, No Iterations 1
DILUPBiCGStab:  Solving for k, Initial residual = 3.94664e-06, Final residual = 1.62651e-08, No Iterations 2
bounding k, min: 0 max: 81.7549 average: 29.2367
ExecutionTime = 87.83 s  ClockTime = 95 s

Time = 1524

DILUPBiCGStab:  Solving for Ux, Initial residual = 5.5498e-06, Final residual = 3.5992e-08, No Iterations 2
DILUPBiCGStab:  Solving for Uy, Initial residual = 0.661624, Final residual = 0.00616502, No Iterations 2
DILUPBiCGStab:  Solving for Uz, Initial residual = 0.348497, Final residual = 0.00103899, No Iterations 3
Pressure gradient source: uncorrected Ubar = 87.255, pressure gradient = 33615.2
GAMG:  Solving for p, Initial residual = 0.338833, Final residual = 0.0312305, No Iterations 5
time step continuity errors : sum local = 1.31632e-12, global = -1.0059e-12, cumulative = -1.04176e-09
Pressure gradient source: uncorrected Ubar = 87.255, pressure gradient = 33606.8
DILUPBiCGStab:  Solving for omega, Initial residual = 1.04299e-10, Final residual = 5.99545e-13, No Iterations 1
DILUPBiCGStab:  Solving for k, Initial residual = 3.93681e-06, Final residual = 1.62222e-08, No Iterations 2
bounding k, min: 0 max: 81.7557 average: 29.2368
ExecutionTime = 87.88 s  ClockTime = 95 s

Time = 1525

DILUPBiCGStab:  Solving for Ux, Initial residual = 5.53432e-06, Final residual = 3.58945e-08, No Iterations 2
DILUPBiCGStab:  Solving for Uy, Initial residual = 0.479684, Final residual = 0.0012903, No Iterations 3
DILUPBiCGStab:  Solving for Uz, Initial residual = 0.386685, Final residual = 0.000952703, No Iterations 3
Pressure gradient source: uncorrected Ubar = 87.255, pressure gradient = 33615.5
GAMG:  Solving for p, Initial residual = 0.34741, Final residual = 0.0226989, No Iterations 5
time step continuity errors : sum local = 1.08774e-12, global = -7.4172e-13, cumulative = -1.0425e-09
Pressure gradient source: uncorrected Ubar = 87.255, pressure gradient = 33607.2
DILUPBiCGStab:  Solving for omega, Initial residual = 1.04007e-10, Final residual = 5.98008e-13, No Iterations 1
DILUPBiCGStab:  Solving for k, Initial residual = 3.927e-06, Final residual = 1.61795e-08, No Iterations 2
bounding k, min: 0 max: 81.7565 average: 29.2368
ExecutionTime = 87.94 s  ClockTime = 95 s

Time = 1526

DILUPBiCGStab:  Solving for Ux, Initial residual = 5.51888e-06, Final residual = 3.57973e-08, No Iterations 2
DILUPBiCGStab:  Solving for Uy, Initial residual = 0.504618, Final residual = 0.00438235, No Iterations 2
DILUPBiCGStab:  Solving for Uz, Initial residual = 0.385512, Final residual = 0.00113117, No Iterations 3
Pressure gradient source: uncorrected Ubar = 87.255, pressure gradient = 33615.9
GAMG:  Solving for p, Initial residual = 0.33946, Final residual = 0.0229186, No Iterations 6
time step continuity errors : sum local = 9.73021e-13, global = -6.63732e-13, cumulative = -1.04317e-09
Pressure gradient source: uncorrected Ubar = 87.255, pressure gradient = 33607.6
DILUPBiCGStab:  Solving for omega, Initial residual = 1.03717e-10, Final residual = 5.96475e-13, No Iterations 1
DILUPBiCGStab:  Solving for k, Initial residual = 3.91721e-06, Final residual = 1.61369e-08, No Iterations 2
bounding k, min: 0 max: 81.7573 average: 29.2369
ExecutionTime = 88 s  ClockTime = 95 s

Time = 1527

DILUPBiCGStab:  Solving for Ux, Initial residual = 5.50349e-06, Final residual = 3.57003e-08, No Iterations 2
DILUPBiCGStab:  Solving for Uy, Initial residual = 0.512961, Final residual = 0.00444051, No Iterations 2
DILUPBiCGStab:  Solving for Uz, Initial residual = 0.40881, Final residual = 0.00285023, No Iterations 2
Pressure gradient source: uncorrected Ubar = 87.255, pressure gradient = 33616.2
GAMG:  Solving for p, Initial residual = 0.33931, Final residual = 0.0204511, No Iterations 6
time step continuity errors : sum local = 8.21278e-13, global = -5.95217e-13, cumulative = -1.04376e-09
Pressure gradient source: uncorrected Ubar = 87.255, pressure gradient = 33607.9
DILUPBiCGStab:  Solving for omega, Initial residual = 1.03427e-10, Final residual = 5.94946e-13, No Iterations 1
DILUPBiCGStab:  Solving for k, Initial residual = 3.90744e-06, Final residual = 1.60943e-08, No Iterations 2
bounding k, min: 0 max: 81.7581 average: 29.237
ExecutionTime = 88.05 s  ClockTime = 95 s

Time = 1528

DILUPBiCGStab:  Solving for Ux, Initial residual = 5.48814e-06, Final residual = 3.56037e-08, No Iterations 2
DILUPBiCGStab:  Solving for Uy, Initial residual = 0.412569, Final residual = 0.00374816, No Iterations 2
DILUPBiCGStab:  Solving for Uz, Initial residual = 0.409521, Final residual = 0.00332211, No Iterations 2
Pressure gradient source: uncorrected Ubar = 87.255, pressure gradient = 33616.5
GAMG:  Solving for p, Initial residual = 0.325868, Final residual = 0.0259378, No Iterations 4
time step continuity errors : sum local = 9.48244e-13, global = -6.4991e-13, cumulative = -1.04441e-09
Pressure gradient source: uncorrected Ubar = 87.255, pressure gradient = 33608.3
DILUPBiCGStab:  Solving for omega, Initial residual = 1.03138e-10, Final residual = 5.9342e-13, No Iterations 1
DILUPBiCGStab:  Solving for k, Initial residual = 3.89769e-06, Final residual = 1.60519e-08, No Iterations 2
bounding k, min: 0 max: 81.7589 average: 29.2371
ExecutionTime = 88.11 s  ClockTime = 96 s

Time = 1529

DILUPBiCGStab:  Solving for Ux, Initial residual = 5.47283e-06, Final residual = 3.55072e-08, No Iterations 2
DILUPBiCGStab:  Solving for Uy, Initial residual = 0.403553, Final residual = 0.00265863, No Iterations 2
DILUPBiCGStab:  Solving for Uz, Initial residual = 0.308751, Final residual = 0.00252025, No Iterations 2
Pressure gradient source: uncorrected Ubar = 87.255, pressure gradient = 33616.9
GAMG:  Solving for p, Initial residual = 0.303604, Final residual = 0.0299352, No Iterations 4
time step continuity errors : sum local = 7.68568e-13, global = -4.95258e-13, cumulative = -1.04491e-09
Pressure gradient source: uncorrected Ubar = 87.255, pressure gradient = 33608.6
DILUPBiCGStab:  Solving for omega, Initial residual = 1.0285e-10, Final residual = 5.91898e-13, No Iterations 1
DILUPBiCGStab:  Solving for k, Initial residual = 3.88795e-06, Final residual = 1.60097e-08, No Iterations 2
bounding k, min: 0 max: 81.7596 average: 29.2371
ExecutionTime = 88.16 s  ClockTime = 96 s

Time = 1530

DILUPBiCGStab:  Solving for Ux, Initial residual = 5.45757e-06, Final residual = 3.54111e-08, No Iterations 2
DILUPBiCGStab:  Solving for Uy, Initial residual = 0.36138, Final residual = 0.00327914, No Iterations 2
DILUPBiCGStab:  Solving for Uz, Initial residual = 0.268362, Final residual = 0.00170014, No Iterations 2
Pressure gradient source: uncorrected Ubar = 87.255, pressure gradient = 33617.2
GAMG:  Solving for p, Initial residual = 0.287976, Final residual = 0.0199319, No Iterations 5
time step continuity errors : sum local = 1.25535e-12, global = -8.9114e-13, cumulative = -1.0458e-09
Pressure gradient source: uncorrected Ubar = 87.255, pressure gradient = 33609
DILUPBiCGStab:  Solving for omega, Initial residual = 1.02563e-10, Final residual = 5.9038e-13, No Iterations 1
DILUPBiCGStab:  Solving for k, Initial residual = 3.87824e-06, Final residual = 1.59675e-08, No Iterations 2
bounding k, min: 0 max: 81.7604 average: 29.2372
ExecutionTime = 88.22 s  ClockTime = 96 s

Time = 1531

DILUPBiCGStab:  Solving for Ux, Initial residual = 5.44234e-06, Final residual = 3.53152e-08, No Iterations 2
DILUPBiCGStab:  Solving for Uy, Initial residual = 0.410472, Final residual = 0.00137768, No Iterations 3
DILUPBiCGStab:  Solving for Uz, Initial residual = 0.280201, Final residual = 0.000887899, No Iterations 3
Pressure gradient source: uncorrected Ubar = 87.255, pressure gradient = 33617.5
GAMG:  Solving for p, Initial residual = 0.283418, Final residual = 0.0167653, No Iterations 5
time step continuity errors : sum local = 1.06113e-12, global = -8.68772e-13, cumulative = -1.04667e-09
Pressure gradient source: uncorrected Ubar = 87.255, pressure gradient = 33609.3
DILUPBiCGStab:  Solving for omega, Initial residual = 1.02276e-10, Final residual = 5.88866e-13, No Iterations 1
DILUPBiCGStab:  Solving for k, Initial residual = 3.86854e-06, Final residual = 1.59254e-08, No Iterations 2
bounding k, min: 0 max: 81.7612 average: 29.2373
ExecutionTime = 88.28 s  ClockTime = 96 s

Time = 1532

DILUPBiCGStab:  Solving for Ux, Initial residual = 5.42716e-06, Final residual = 3.52196e-08, No Iterations 2
DILUPBiCGStab:  Solving for Uy, Initial residual = 0.357239, Final residual = 0.00283349, No Iterations 2
DILUPBiCGStab:  Solving for Uz, Initial residual = 0.240769, Final residual = 0.00163758, No Iterations 2
Pressure gradient source: uncorrected Ubar = 87.255, pressure gradient = 33617.8
GAMG:  Solving for p, Initial residual = 0.28543, Final residual = 0.0230501, No Iterations 4
time step continuity errors : sum local = 1.2538e-12, global = -9.99444e-13, cumulative = -1.04767e-09
Pressure gradient source: uncorrected Ubar = 87.255, pressure gradient = 33609.7
DILUPBiCGStab:  Solving for omega, Initial residual = 1.0199e-10, Final residual = 5.87357e-13, No Iterations 1
DILUPBiCGStab:  Solving for k, Initial residual = 3.85887e-06, Final residual = 1.58834e-08, No Iterations 2
bounding k, min: 0 max: 81.762 average: 29.2373
ExecutionTime = 88.33 s  ClockTime = 96 s

Time = 1533

DILUPBiCGStab:  Solving for Ux, Initial residual = 5.41202e-06, Final residual = 3.51243e-08, No Iterations 2
DILUPBiCGStab:  Solving for Uy, Initial residual = 0.298264, Final residual = 0.00237681, No Iterations 2
DILUPBiCGStab:  Solving for Uz, Initial residual = 0.229632, Final residual = 0.000663123, No Iterations 3
Pressure gradient source: uncorrected Ubar = 87.255, pressure gradient = 33618.2
GAMG:  Solving for p, Initial residual = 0.258083, Final residual = 0.0166648, No Iterations 5
time step continuity errors : sum local = 1.28452e-12, global = -1.08801e-12, cumulative = -1.04876e-09
Pressure gradient source: uncorrected Ubar = 87.255, pressure gradient = 33610
DILUPBiCGStab:  Solving for omega, Initial residual = 1.01705e-10, Final residual = 5.85851e-13, No Iterations 1
DILUPBiCGStab:  Solving for k, Initial residual = 3.84921e-06, Final residual = 1.58416e-08, No Iterations 2
bounding k, min: 0 max: 81.7627 average: 29.2374
ExecutionTime = 88.38 s  ClockTime = 96 s

Time = 1534

DILUPBiCGStab:  Solving for Ux, Initial residual = 5.39693e-06, Final residual = 3.50292e-08, No Iterations 2
DILUPBiCGStab:  Solving for Uy, Initial residual = 0.341499, Final residual = 0.00245471, No Iterations 2
DILUPBiCGStab:  Solving for Uz, Initial residual = 0.216438, Final residual = 0.0014083, No Iterations 2
Pressure gradient source: uncorrected Ubar = 87.255, pressure gradient = 33618.5
GAMG:  Solving for p, Initial residual = 0.286618, Final residual = 0.0180075, No Iterations 6
time step continuity errors : sum local = 9.174e-13, global = -7.22132e-13, cumulative = -1.04948e-09
Pressure gradient source: uncorrected Ubar = 87.255, pressure gradient = 33610.4
DILUPBiCGStab:  Solving for omega, Initial residual = 1.01421e-10, Final residual = 5.84349e-13, No Iterations 1
DILUPBiCGStab:  Solving for k, Initial residual = 3.83958e-06, Final residual = 1.57998e-08, No Iterations 2
bounding k, min: 0 max: 81.7635 average: 29.2375
ExecutionTime = 88.44 s  ClockTime = 96 s

Time = 1535

DILUPBiCGStab:  Solving for Ux, Initial residual = 5.38187e-06, Final residual = 3.49343e-08, No Iterations 2
DILUPBiCGStab:  Solving for Uy, Initial residual = 0.445515, Final residual = 0.00435233, No Iterations 2
DILUPBiCGStab:  Solving for Uz, Initial residual = 0.490617, Final residual = 0.00476482, No Iterations 2
Pressure gradient source: uncorrected Ubar = 87.255, pressure gradient = 33618.8
GAMG:  Solving for p, Initial residual = 0.376013, Final residual = 0.0161178, No Iterations 6
time step continuity errors : sum local = 4.65269e-13, global = -3.07324e-13, cumulative = -1.04979e-09
Pressure gradient source: uncorrected Ubar = 87.255, pressure gradient = 33610.7
DILUPBiCGStab:  Solving for omega, Initial residual = 1.01138e-10, Final residual = 5.8285e-13, No Iterations 1
DILUPBiCGStab:  Solving for k, Initial residual = 3.82996e-06, Final residual = 1.57582e-08, No Iterations 2
bounding k, min: 0 max: 81.7643 average: 29.2376
ExecutionTime = 88.5 s  ClockTime = 96 s

Time = 1536

DILUPBiCGStab:  Solving for Ux, Initial residual = 5.36686e-06, Final residual = 3.48397e-08, No Iterations 2
DILUPBiCGStab:  Solving for Uy, Initial residual = 0.457255, Final residual = 0.00151667, No Iterations 3
DILUPBiCGStab:  Solving for Uz, Initial residual = 0.536993, Final residual = 0.00480588, No Iterations 2
Pressure gradient source: uncorrected Ubar = 87.255, pressure gradient = 33619.1
GAMG:  Solving for p, Initial residual = 0.367979, Final residual = 0.02428, No Iterations 8
time step continuity errors : sum local = 5.74511e-13, global = -3.43921e-13, cumulative = -1.05013e-09
Pressure gradient source: uncorrected Ubar = 87.255, pressure gradient = 33611
DILUPBiCGStab:  Solving for omega, Initial residual = 1.00855e-10, Final residual = 5.81354e-13, No Iterations 1
DILUPBiCGStab:  Solving for k, Initial residual = 3.82036e-06, Final residual = 1.57167e-08, No Iterations 2
bounding k, min: 0 max: 81.765 average: 29.2376
ExecutionTime = 88.55 s  ClockTime = 96 s

Time = 1537

DILUPBiCGStab:  Solving for Ux, Initial residual = 5.35189e-06, Final residual = 3.47454e-08, No Iterations 2
DILUPBiCGStab:  Solving for Uy, Initial residual = 0.543983, Final residual = 0.00385901, No Iterations 2
DILUPBiCGStab:  Solving for Uz, Initial residual = 0.633368, Final residual = 0.0057559, No Iterations 2
Pressure gradient source: uncorrected Ubar = 87.255, pressure gradient = 33619.5
GAMG:  Solving for p, Initial residual = 0.351378, Final residual = 0.0266524, No Iterations 5
time step continuity errors : sum local = 1.2308e-12, global = -9.20164e-13, cumulative = -1.05105e-09
Pressure gradient source: uncorrected Ubar = 87.255, pressure gradient = 33611.4
DILUPBiCGStab:  Solving for omega, Initial residual = 1.00573e-10, Final residual = 5.79862e-13, No Iterations 1
DILUPBiCGStab:  Solving for k, Initial residual = 3.81078e-06, Final residual = 1.56753e-08, No Iterations 2
bounding k, min: 0 max: 81.7658 average: 29.2377
ExecutionTime = 88.61 s  ClockTime = 96 s

Time = 1538

DILUPBiCGStab:  Solving for Ux, Initial residual = 5.33696e-06, Final residual = 3.46513e-08, No Iterations 2
DILUPBiCGStab:  Solving for Uy, Initial residual = 0.509046, Final residual = 0.00489041, No Iterations 2
DILUPBiCGStab:  Solving for Uz, Initial residual = 0.330007, Final residual = 0.00111295, No Iterations 3
Pressure gradient source: uncorrected Ubar = 87.255, pressure gradient = 33619.8
GAMG:  Solving for p, Initial residual = 0.320834, Final residual = 0.0274706, No Iterations 5
time step continuity errors : sum local = 1.11098e-12, global = -6.40004e-13, cumulative = -1.05169e-09
Pressure gradient source: uncorrected Ubar = 87.255, pressure gradient = 33611.7
DILUPBiCGStab:  Solving for omega, Initial residual = 1.00292e-10, Final residual = 5.78374e-13, No Iterations 1
DILUPBiCGStab:  Solving for k, Initial residual = 3.80122e-06, Final residual = 1.5634e-08, No Iterations 2
bounding k, min: 0 max: 81.7666 average: 29.2378
ExecutionTime = 88.66 s  ClockTime = 96 s

Time = 1539

DILUPBiCGStab:  Solving for Ux, Initial residual = 5.32207e-06, Final residual = 3.45575e-08, No Iterations 2
DILUPBiCGStab:  Solving for Uy, Initial residual = 0.45594, Final residual = 0.00296319, No Iterations 2
DILUPBiCGStab:  Solving for Uz, Initial residual = 0.471283, Final residual = 0.00125315, No Iterations 3
Pressure gradient source: uncorrected Ubar = 87.255, pressure gradient = 33620.1
GAMG:  Solving for p, Initial residual = 0.344763, Final residual = 0.0229972, No Iterations 6
time step continuity errors : sum local = 9.19455e-13, global = -6.51965e-13, cumulative = -1.05234e-09
Pressure gradient source: uncorrected Ubar = 87.255, pressure gradient = 33612.1
DILUPBiCGStab:  Solving for omega, Initial residual = 1.00012e-10, Final residual = 5.76889e-13, No Iterations 1
DILUPBiCGStab:  Solving for k, Initial residual = 3.79168e-06, Final residual = 1.55928e-08, No Iterations 2
bounding k, min: 0 max: 81.7673 average: 29.2379
ExecutionTime = 88.71 s  ClockTime = 96 s

Time = 1540

DILUPBiCGStab:  Solving for Ux, Initial residual = 5.30722e-06, Final residual = 3.44639e-08, No Iterations 2
DILUPBiCGStab:  Solving for Uy, Initial residual = 0.439723, Final residual = 0.00409142, No Iterations 2
DILUPBiCGStab:  Solving for Uz, Initial residual = 0.295492, Final residual = 0.00266422, No Iterations 2
Pressure gradient source: uncorrected Ubar = 87.255, pressure gradient = 33620.4
GAMG:  Solving for p, Initial residual = 0.339163, Final residual = 0.0302379, No Iterations 6
time step continuity errors : sum local = 1.15359e-12, global = -8.30252e-13, cumulative = -1.05317e-09
Pressure gradient source: uncorrected Ubar = 87.255, pressure gradient = 33612.4
DILUPBiCGStab:  Solving for omega, Initial residual = 9.97323e-11, Final residual = 5.75408e-13, No Iterations 1
DILUPBiCGStab:  Solving for k, Initial residual = 3.78215e-06, Final residual = 1.55517e-08, No Iterations 2
bounding k, min: 0 max: 81.7681 average: 29.2379
ExecutionTime = 88.78 s  ClockTime = 96 s


SIMPLE solution converged in 1540 iterations

End

