/*---------------------------------------------------------------------------*\
  =========                 |
  \\      /  F ield         | OpenFOAM: The Open Source CFD Toolbox
   \\    /   O peration     | Website:  https://openfoam.org
    \\  /    A nd           | Version:  7
     \\/     M anipulation  |
\*---------------------------------------------------------------------------*/
Build  : 7-3bcbaf946ae9
Exec   : simpleFoam
Date   : May 08 2023
Time   : 20:47:14
Host   : "kaj-HP-ZBook-Studio-G4"
PID    : 215316
I/O    : uncollated
Case   : /home/kaj/Documents/thesis/finalCases/rectDuct/AR_1_Ret_360/00Baseline/beta11
nProcs : 1
sigFpe : Enabling floating point exception trapping (FOAM_SIGFPE).
fileModificationChecking : Monitoring run-time modified files using timeStampMaster (fileModificationSkew 10)
allowSystemOperations : Allowing user-supplied system call operations

// * * * * * * * * * * * * * * * * * * * * * * * * * * * * * * * * * * * * * //
Create time

Using #calcEntry at line 4 in file "/home/kaj/Documents/thesis/finalCases/rectDuct/AR_1_Ret_360/00Baseline/beta11/system/controlDict.functions.convergenceProbes"
Using #codeStream with "/home/kaj/Documents/thesis/finalCases/rectDuct/AR_1_Ret_360/00Baseline/beta11/dynamicCode/platforms/linux64GccDPInt32Opt/lib/libcodeStream_e305d05308d1ade03f6eb88824101ddb2eba3278.so"
Creating new library in "dynamicCode/_e305d05308d1ade03f6eb88824101ddb2eba3278/platforms/linux64GccDPInt32Opt/lib/libcodeStream_e305d05308d1ade03f6eb88824101ddb2eba3278.so"
Invoking "wmake -s libso /home/kaj/Documents/thesis/finalCases/rectDuct/AR_1_Ret_360/00Baseline/beta11/dynamicCode/_e305d05308d1ade03f6eb88824101ddb2eba3278"
wmake libso /home/kaj/Documents/thesis/finalCases/rectDuct/AR_1_Ret_360/00Baseline/beta11/dynamicCode/_e305d05308d1ade03f6eb88824101ddb2eba3278
    wmkdep: codeStreamTemplate.C
    Ctoo: codeStreamTemplate.C
    ld: /home/kaj/Documents/thesis/finalCases/rectDuct/AR_1_Ret_360/00Baseline/beta11/dynamicCode/_e305d05308d1ade03f6eb88824101ddb2eba3278/../platforms/linux64GccDPInt32Opt/lib/libcodeStream_e305d05308d1ade03f6eb88824101ddb2eba3278.so
Using #calcEntry at line 5 in file "/home/kaj/Documents/thesis/finalCases/rectDuct/AR_1_Ret_360/00Baseline/beta11/system/controlDict.functions.convergenceProbes"
Using #codeStream with "/home/kaj/Documents/thesis/finalCases/rectDuct/AR_1_Ret_360/00Baseline/beta11/dynamicCode/platforms/linux64GccDPInt32Opt/lib/libcodeStream_8f3c4192690bcc53a34cf723aeeab9b62f638bd7.so"
Creating new library in "dynamicCode/_8f3c4192690bcc53a34cf723aeeab9b62f638bd7/platforms/linux64GccDPInt32Opt/lib/libcodeStream_8f3c4192690bcc53a34cf723aeeab9b62f638bd7.so"
Invoking "wmake -s libso /home/kaj/Documents/thesis/finalCases/rectDuct/AR_1_Ret_360/00Baseline/beta11/dynamicCode/_8f3c4192690bcc53a34cf723aeeab9b62f638bd7"
wmake libso /home/kaj/Documents/thesis/finalCases/rectDuct/AR_1_Ret_360/00Baseline/beta11/dynamicCode/_8f3c4192690bcc53a34cf723aeeab9b62f638bd7
    wmkdep: codeStreamTemplate.C
    Ctoo: codeStreamTemplate.C
    ld: /home/kaj/Documents/thesis/finalCases/rectDuct/AR_1_Ret_360/00Baseline/beta11/dynamicCode/_8f3c4192690bcc53a34cf723aeeab9b62f638bd7/../platforms/linux64GccDPInt32Opt/lib/libcodeStream_8f3c4192690bcc53a34cf723aeeab9b62f638bd7.so
Using #calcEntry at line 6 in file "/home/kaj/Documents/thesis/finalCases/rectDuct/AR_1_Ret_360/00Baseline/beta11/system/controlDict.functions.convergenceProbes"
Using #codeStream with "/home/kaj/Documents/thesis/finalCases/rectDuct/AR_1_Ret_360/00Baseline/beta11/dynamicCode/platforms/linux64GccDPInt32Opt/lib/libcodeStream_a2727cef0b180b3b2f6a19fffe5ff7cc3de40b59.so"
Creating new library in "dynamicCode/_a2727cef0b180b3b2f6a19fffe5ff7cc3de40b59/platforms/linux64GccDPInt32Opt/lib/libcodeStream_a2727cef0b180b3b2f6a19fffe5ff7cc3de40b59.so"
Invoking "wmake -s libso /home/kaj/Documents/thesis/finalCases/rectDuct/AR_1_Ret_360/00Baseline/beta11/dynamicCode/_a2727cef0b180b3b2f6a19fffe5ff7cc3de40b59"
wmake libso /home/kaj/Documents/thesis/finalCases/rectDuct/AR_1_Ret_360/00Baseline/beta11/dynamicCode/_a2727cef0b180b3b2f6a19fffe5ff7cc3de40b59
    wmkdep: codeStreamTemplate.C
    Ctoo: codeStreamTemplate.C
    ld: /home/kaj/Documents/thesis/finalCases/rectDuct/AR_1_Ret_360/00Baseline/beta11/dynamicCode/_a2727cef0b180b3b2f6a19fffe5ff7cc3de40b59/../platforms/linux64GccDPInt32Opt/lib/libcodeStream_a2727cef0b180b3b2f6a19fffe5ff7cc3de40b59.so
Using #calcEntry at line 7 in file "/home/kaj/Documents/thesis/finalCases/rectDuct/AR_1_Ret_360/00Baseline/beta11/system/controlDict.functions.convergenceProbes"
Using #codeStream with "/home/kaj/Documents/thesis/finalCases/rectDuct/AR_1_Ret_360/00Baseline/beta11/dynamicCode/platforms/linux64GccDPInt32Opt/lib/libcodeStream_08de2c874f28fd753ed75007aeeceda0c9d51543.so"
Creating new library in "dynamicCode/_08de2c874f28fd753ed75007aeeceda0c9d51543/platforms/linux64GccDPInt32Opt/lib/libcodeStream_08de2c874f28fd753ed75007aeeceda0c9d51543.so"
Invoking "wmake -s libso /home/kaj/Documents/thesis/finalCases/rectDuct/AR_1_Ret_360/00Baseline/beta11/dynamicCode/_08de2c874f28fd753ed75007aeeceda0c9d51543"
wmake libso /home/kaj/Documents/thesis/finalCases/rectDuct/AR_1_Ret_360/00Baseline/beta11/dynamicCode/_08de2c874f28fd753ed75007aeeceda0c9d51543
    wmkdep: codeStreamTemplate.C
    Ctoo: codeStreamTemplate.C
    ld: /home/kaj/Documents/thesis/finalCases/rectDuct/AR_1_Ret_360/00Baseline/beta11/dynamicCode/_08de2c874f28fd753ed75007aeeceda0c9d51543/../platforms/linux64GccDPInt32Opt/lib/libcodeStream_08de2c874f28fd753ed75007aeeceda0c9d51543.so
Using #calcEntry at line 8 in file "/home/kaj/Documents/thesis/finalCases/rectDuct/AR_1_Ret_360/00Baseline/beta11/system/controlDict.functions.convergenceProbes"
Using #codeStream with "/home/kaj/Documents/thesis/finalCases/rectDuct/AR_1_Ret_360/00Baseline/beta11/dynamicCode/platforms/linux64GccDPInt32Opt/lib/libcodeStream_113c0be5b9de49cf46d2b5f510dd43edc0e2aa39.so"
Creating new library in "dynamicCode/_113c0be5b9de49cf46d2b5f510dd43edc0e2aa39/platforms/linux64GccDPInt32Opt/lib/libcodeStream_113c0be5b9de49cf46d2b5f510dd43edc0e2aa39.so"
Invoking "wmake -s libso /home/kaj/Documents/thesis/finalCases/rectDuct/AR_1_Ret_360/00Baseline/beta11/dynamicCode/_113c0be5b9de49cf46d2b5f510dd43edc0e2aa39"
wmake libso /home/kaj/Documents/thesis/finalCases/rectDuct/AR_1_Ret_360/00Baseline/beta11/dynamicCode/_113c0be5b9de49cf46d2b5f510dd43edc0e2aa39
    wmkdep: codeStreamTemplate.C
    Ctoo: codeStreamTemplate.C
    ld: /home/kaj/Documents/thesis/finalCases/rectDuct/AR_1_Ret_360/00Baseline/beta11/dynamicCode/_113c0be5b9de49cf46d2b5f510dd43edc0e2aa39/../platforms/linux64GccDPInt32Opt/lib/libcodeStream_113c0be5b9de49cf46d2b5f510dd43edc0e2aa39.so
Using #calcEntry at line 9 in file "/home/kaj/Documents/thesis/finalCases/rectDuct/AR_1_Ret_360/00Baseline/beta11/system/controlDict.functions.convergenceProbes"
Using #codeStream with "/home/kaj/Documents/thesis/finalCases/rectDuct/AR_1_Ret_360/00Baseline/beta11/dynamicCode/platforms/linux64GccDPInt32Opt/lib/libcodeStream_5fdfd6a3e530880c1cc1e3743cb143548bc9ec5d.so"
Creating new library in "dynamicCode/_5fdfd6a3e530880c1cc1e3743cb143548bc9ec5d/platforms/linux64GccDPInt32Opt/lib/libcodeStream_5fdfd6a3e530880c1cc1e3743cb143548bc9ec5d.so"
Invoking "wmake -s libso /home/kaj/Documents/thesis/finalCases/rectDuct/AR_1_Ret_360/00Baseline/beta11/dynamicCode/_5fdfd6a3e530880c1cc1e3743cb143548bc9ec5d"
wmake libso /home/kaj/Documents/thesis/finalCases/rectDuct/AR_1_Ret_360/00Baseline/beta11/dynamicCode/_5fdfd6a3e530880c1cc1e3743cb143548bc9ec5d
    wmkdep: codeStreamTemplate.C
    Ctoo: codeStreamTemplate.C
    ld: /home/kaj/Documents/thesis/finalCases/rectDuct/AR_1_Ret_360/00Baseline/beta11/dynamicCode/_5fdfd6a3e530880c1cc1e3743cb143548bc9ec5d/../platforms/linux64GccDPInt32Opt/lib/libcodeStream_5fdfd6a3e530880c1cc1e3743cb143548bc9ec5d.so
Create mesh for time = 0


SIMPLE: Convergence criteria found
        k: tolerance 5e-06
        omega: tolerance 1e-10

Reading field p

Reading field U

Using #calcEntry at line 19 in file "/home/kaj/Documents/thesis/finalCases/rectDuct/AR_1_Ret_360/00Baseline/beta11/0/U"
Using #codeStream with "/home/kaj/Documents/thesis/finalCases/rectDuct/AR_1_Ret_360/00Baseline/beta11/dynamicCode/platforms/linux64GccDPInt32Opt/lib/libcodeStream_be568a62a82dc4693966e525f105d431e5d71b5c.so"
Creating new library in "dynamicCode/_be568a62a82dc4693966e525f105d431e5d71b5c/platforms/linux64GccDPInt32Opt/lib/libcodeStream_be568a62a82dc4693966e525f105d431e5d71b5c.so"
Invoking "wmake -s libso /home/kaj/Documents/thesis/finalCases/rectDuct/AR_1_Ret_360/00Baseline/beta11/dynamicCode/_be568a62a82dc4693966e525f105d431e5d71b5c"
wmake libso /home/kaj/Documents/thesis/finalCases/rectDuct/AR_1_Ret_360/00Baseline/beta11/dynamicCode/_be568a62a82dc4693966e525f105d431e5d71b5c
    wmkdep: codeStreamTemplate.C
    Ctoo: codeStreamTemplate.C
    ld: /home/kaj/Documents/thesis/finalCases/rectDuct/AR_1_Ret_360/00Baseline/beta11/dynamicCode/_be568a62a82dc4693966e525f105d431e5d71b5c/../platforms/linux64GccDPInt32Opt/lib/libcodeStream_be568a62a82dc4693966e525f105d431e5d71b5c.so
Reading/calculating face flux field phi

Selecting incompressible transport model Newtonian
Selecting turbulence model type RAS
Selecting RAS turbulence model kOmegaSST
Selecting patchDistMethod meshWave
bounding k, min: 0 max: 0.02 average: 0.02
RAS
{
    RASModel        kOmegaSST;
    turbulence      on;
    printCoeffs     on;
    alphaK1         0.85;
    alphaK2         1;
    alphaOmega1     0.5;
    alphaOmega2     0.856;
    gamma1          0.555556;
    gamma2          0.44;
    beta1           0.075;
    beta2           0.0828;
    betaStar        0.09;
    a1              0.31;
    b1              1;
    c1              10;
    F3              false;
}

No MRF models present

Creating finite volume options from "system/fvOptions"

Using #calcEntry at line 20 in file "/home/kaj/Documents/thesis/finalCases/rectDuct/AR_1_Ret_360/00Baseline/beta11/system/fvOptions"
Selecting finite volume options model type meanVelocityForce
    Source: meanVelocity1
    - selecting all cells
    - selected 3025 cell(s) with volume 1e-09
    Initial pressure gradient = 0


Starting time loop

Time = 1

DILUPBiCGStab:  Solving for Ux, Initial residual = 1, Final residual = 0.00464511, No Iterations 1
DILUPBiCGStab:  Solving for Uy, Initial residual = 0.950639, Final residual = 0.00913302, No Iterations 1
DILUPBiCGStab:  Solving for Uz, Initial residual = 0.950639, Final residual = 0.00913306, No Iterations 1
Pressure gradient source: uncorrected Ubar = 85.3812, pressure gradient = 69399.5
GAMG:  Solving for p, Initial residual = 0.223736, Final residual = 0.0199439, No Iterations 2
time step continuity errors : sum local = 1.20303e-13, global = -1.03553e-13, cumulative = -1.03553e-13
Pressure gradient source: uncorrected Ubar = 85.3928, pressure gradient = 11305.8
DILUPBiCGStab:  Solving for omega, Initial residual = 0.166576, Final residual = 0.000731962, No Iterations 1
DILUPBiCGStab:  Solving for k, Initial residual = 1, Final residual = 0.00451389, No Iterations 1
bounding k, min: 0 max: 0.0414332 average: 0.0226987
ExecutionTime = 0.08 s  ClockTime = 7 s

Time = 2

DILUPBiCGStab:  Solving for Ux, Initial residual = 0.864387, Final residual = 0.00492266, No Iterations 1
DILUPBiCGStab:  Solving for Uy, Initial residual = 0.967152, Final residual = 0.00651661, No Iterations 3
DILUPBiCGStab:  Solving for Uz, Initial residual = 0.966226, Final residual = 0.0043842, No Iterations 3
Pressure gradient source: uncorrected Ubar = 85.2214, pressure gradient = 84087.4
GAMG:  Solving for p, Initial residual = 0.793826, Final residual = 0.0638374, No Iterations 3
time step continuity errors : sum local = 5.99466e-12, global = 9.91954e-14, cumulative = -4.35724e-15
Pressure gradient source: uncorrected Ubar = 85.3915, pressure gradient = 12783
DILUPBiCGStab:  Solving for omega, Initial residual = 0.0720503, Final residual = 1.16001e-05, No Iterations 1
DILUPBiCGStab:  Solving for k, Initial residual = 0.962864, Final residual = 0.000685356, No Iterations 1
bounding k, min: 0 max: 0.0200191 average: 0.0169008
ExecutionTime = 0.1 s  ClockTime = 7 s

Time = 3

DILUPBiCGStab:  Solving for Ux, Initial residual = 0.10969, Final residual = 0.000612662, No Iterations 1
DILUPBiCGStab:  Solving for Uy, Initial residual = 0.784221, Final residual = 0.00773167, No Iterations 3
DILUPBiCGStab:  Solving for Uz, Initial residual = 0.803054, Final residual = 0.00744939, No Iterations 3
Pressure gradient source: uncorrected Ubar = 85.4101, pressure gradient = 9749.41
GAMG:  Solving for p, Initial residual = 0.802325, Final residual = 0.0538123, No Iterations 3
time step continuity errors : sum local = 7.10199e-12, global = 3.61188e-13, cumulative = 3.56831e-13
Pressure gradient source: uncorrected Ubar = 85.4382, pressure gradient = 4097.21
DILUPBiCGStab:  Solving for omega, Initial residual = 0.00407215, Final residual = 1.64325e-06, No Iterations 1
DILUPBiCGStab:  Solving for k, Initial residual = 0.20256, Final residual = 0.00036075, No Iterations 1
bounding k, min: 0 max: 0.0200138 average: 0.0144234
ExecutionTime = 0.12 s  ClockTime = 7 s

Time = 4

DILUPBiCGStab:  Solving for Ux, Initial residual = 0.0473137, Final residual = 0.000319693, No Iterations 1
DILUPBiCGStab:  Solving for Uy, Initial residual = 0.702223, Final residual = 0.00430617, No Iterations 4
DILUPBiCGStab:  Solving for Uz, Initial residual = 0.684144, Final residual = 0.00488204, No Iterations 4
Pressure gradient source: uncorrected Ubar = 85.2872, pressure gradient = 25004.4
GAMG:  Solving for p, Initial residual = 0.755287, Final residual = 0.0613461, No Iterations 3
time step continuity errors : sum local = 5.91672e-12, global = 3.65199e-14, cumulative = 3.93351e-13
Pressure gradient source: uncorrected Ubar = 85.3967, pressure gradient = 3767.5
DILUPBiCGStab:  Solving for omega, Initial residual = 0.00142211, Final residual = 5.6658e-07, No Iterations 1
DILUPBiCGStab:  Solving for k, Initial residual = 0.0510435, Final residual = 0.000262714, No Iterations 1
bounding k, min: 0 max: 0.0200659 average: 0.0130277
ExecutionTime = 0.13 s  ClockTime = 7 s

Time = 5

DILUPBiCGStab:  Solving for Ux, Initial residual = 0.030588, Final residual = 0.000282162, No Iterations 1
DILUPBiCGStab:  Solving for Uy, Initial residual = 0.712651, Final residual = 0.00503167, No Iterations 4
DILUPBiCGStab:  Solving for Uz, Initial residual = 0.687517, Final residual = 0.00328239, No Iterations 4
Pressure gradient source: uncorrected Ubar = 85.2824, pressure gradient = 25194.3
GAMG:  Solving for p, Initial residual = 0.686811, Final residual = 0.0647429, No Iterations 3
time step continuity errors : sum local = 4.15551e-12, global = 4.17292e-14, cumulative = 4.3508e-13
Pressure gradient source: uncorrected Ubar = 85.3952, pressure gradient = 3728.8
DILUPBiCGStab:  Solving for omega, Initial residual = 0.000478984, Final residual = 2.11689e-07, No Iterations 1
DILUPBiCGStab:  Solving for k, Initial residual = 0.0176926, Final residual = 1.96259e-05, No Iterations 1
bounding k, min: 0 max: 0.0202384 average: 0.0120223
ExecutionTime = 0.15 s  ClockTime = 7 s

Time = 6

DILUPBiCGStab:  Solving for Ux, Initial residual = 0.0233255, Final residual = 0.000112751, No Iterations 2
DILUPBiCGStab:  Solving for Uy, Initial residual = 0.552395, Final residual = 0.00405914, No Iterations 4
DILUPBiCGStab:  Solving for Uz, Initial residual = 0.673567, Final residual = 0.00524879, No Iterations 4
Pressure gradient source: uncorrected Ubar = 85.3024, pressure gradient = 21154
GAMG:  Solving for p, Initial residual = 0.65756, Final residual = 0.0644191, No Iterations 3
time step continuity errors : sum local = 3.57386e-12, global = -4.23795e-13, cumulative = 1.12851e-14
Pressure gradient source: uncorrected Ubar = 85.3946, pressure gradient = 3812.27
DILUPBiCGStab:  Solving for omega, Initial residual = 0.000194041, Final residual = 1.11011e-07, No Iterations 1
DILUPBiCGStab:  Solving for k, Initial residual = 0.00808664, Final residual = 2.0552e-05, No Iterations 1
bounding k, min: 0 max: 0.0204764 average: 0.0113143
ExecutionTime = 0.17 s  ClockTime = 7 s

Time = 7

DILUPBiCGStab:  Solving for Ux, Initial residual = 0.0191815, Final residual = 0.000110078, No Iterations 2
DILUPBiCGStab:  Solving for Uy, Initial residual = 0.715393, Final residual = 0.00413767, No Iterations 4
DILUPBiCGStab:  Solving for Uz, Initial residual = 0.636931, Final residual = 0.00531174, No Iterations 4
Pressure gradient source: uncorrected Ubar = 85.2971, pressure gradient = 22110.7
GAMG:  Solving for p, Initial residual = 0.625954, Final residual = 0.034843, No Iterations 4
time step continuity errors : sum local = 2.07202e-12, global = -2.02388e-13, cumulative = -1.91103e-13
Pressure gradient source: uncorrected Ubar = 85.3942, pressure gradient = 3963.48
DILUPBiCGStab:  Solving for omega, Initial residual = 7.31878e-05, Final residual = 5.81158e-08, No Iterations 1
DILUPBiCGStab:  Solving for k, Initial residual = 0.00470085, Final residual = 2.32296e-05, No Iterations 1
bounding k, min: 0 max: 0.0208271 average: 0.0108092
ExecutionTime = 0.19 s  ClockTime = 7 s

Time = 8

DILUPBiCGStab:  Solving for Ux, Initial residual = 0.0164515, Final residual = 0.00011032, No Iterations 2
DILUPBiCGStab:  Solving for Uy, Initial residual = 0.517762, Final residual = 0.00364316, No Iterations 4
DILUPBiCGStab:  Solving for Uz, Initial residual = 0.545943, Final residual = 0.00317642, No Iterations 4
Pressure gradient source: uncorrected Ubar = 85.2924, pressure gradient = 23053.6
GAMG:  Solving for p, Initial residual = 0.576673, Final residual = 0.0371373, No Iterations 4
time step continuity errors : sum local = 1.45648e-12, global = 8.43434e-14, cumulative = -1.06759e-13
Pressure gradient source: uncorrected Ubar = 85.394, pressure gradient = 4147.25
DILUPBiCGStab:  Solving for omega, Initial residual = 2.96538e-05, Final residual = 4.69251e-08, No Iterations 1
DILUPBiCGStab:  Solving for k, Initial residual = 0.00316858, Final residual = 3.03086e-05, No Iterations 1
bounding k, min: 0 max: 0.0213435 average: 0.0104619
ExecutionTime = 0.21 s  ClockTime = 7 s

Time = 9

DILUPBiCGStab:  Solving for Ux, Initial residual = 0.0144852, Final residual = 0.000112305, No Iterations 2
DILUPBiCGStab:  Solving for Uy, Initial residual = 0.582355, Final residual = 0.00469824, No Iterations 4
DILUPBiCGStab:  Solving for Uz, Initial residual = 0.724845, Final residual = 0.00631114, No Iterations 4
Pressure gradient source: uncorrected Ubar = 85.288, pressure gradient = 23984.6
GAMG:  Solving for p, Initial residual = 0.523994, Final residual = 0.0368446, No Iterations 4
time step continuity errors : sum local = 1.01597e-12, global = 9.84358e-14, cumulative = -8.32345e-15
Pressure gradient source: uncorrected Ubar = 85.3939, pressure gradient = 4352.31
DILUPBiCGStab:  Solving for omega, Initial residual = 1.13328e-05, Final residual = 3.61958e-08, No Iterations 1
DILUPBiCGStab:  Solving for k, Initial residual = 0.00232745, Final residual = 1.39716e-05, No Iterations 2
bounding k, min: 0 max: 0.0221191 average: 0.0102608
ExecutionTime = 0.22 s  ClockTime = 7 s

Time = 10

DILUPBiCGStab:  Solving for Ux, Initial residual = 0.0129943, Final residual = 0.000115388, No Iterations 2
DILUPBiCGStab:  Solving for Uy, Initial residual = 0.587742, Final residual = 0.00471894, No Iterations 4
DILUPBiCGStab:  Solving for Uz, Initial residual = 0.534512, Final residual = 0.00473136, No Iterations 4
Pressure gradient source: uncorrected Ubar = 85.2841, pressure gradient = 24873.5
GAMG:  Solving for p, Initial residual = 0.502943, Final residual = 0.0349918, No Iterations 4
time step continuity errors : sum local = 1.46051e-12, global = 5.95436e-13, cumulative = 5.87113e-13
Pressure gradient source: uncorrected Ubar = 85.3938, pressure gradient = 4571.15
DILUPBiCGStab:  Solving for omega, Initial residual = 5.23865e-06, Final residual = 3.38845e-08, No Iterations 1
DILUPBiCGStab:  Solving for k, Initial residual = 0.00181905, Final residual = 1.64735e-05, No Iterations 2
bounding k, min: 0 max: 0.0231536 average: 0.0101826
ExecutionTime = 0.25 s  ClockTime = 7 s

Time = 11

DILUPBiCGStab:  Solving for Ux, Initial residual = 0.0118175, Final residual = 9.49192e-05, No Iterations 2
DILUPBiCGStab:  Solving for Uy, Initial residual = 0.542491, Final residual = 0.0043829, No Iterations 4
DILUPBiCGStab:  Solving for Uz, Initial residual = 0.411705, Final residual = 0.00307744, No Iterations 4
Pressure gradient source: uncorrected Ubar = 85.3213, pressure gradient = 18186.9
GAMG:  Solving for p, Initial residual = 0.460878, Final residual = 0.0329983, No Iterations 4
time step continuity errors : sum local = 8.8704e-13, global = 1.61417e-13, cumulative = 7.48529e-13
Pressure gradient source: uncorrected Ubar = 85.3938, pressure gradient = 4801.27
DILUPBiCGStab:  Solving for omega, Initial residual = 2.17704e-06, Final residual = 3.47828e-09, No Iterations 1
DILUPBiCGStab:  Solving for k, Initial residual = 0.00151469, Final residual = 5.36958e-06, No Iterations 2
bounding k, min: 0 max: 0.024463 average: 0.0101979
ExecutionTime = 0.27 s  ClockTime = 7 s

Time = 12

DILUPBiCGStab:  Solving for Ux, Initial residual = 0.0108672, Final residual = 9.89894e-05, No Iterations 2
DILUPBiCGStab:  Solving for Uy, Initial residual = 0.563914, Final residual = 0.00514877, No Iterations 4
DILUPBiCGStab:  Solving for Uz, Initial residual = 0.560124, Final residual = 0.00364102, No Iterations 4
Pressure gradient source: uncorrected Ubar = 85.3182, pressure gradient = 18952.4
GAMG:  Solving for p, Initial residual = 0.441144, Final residual = 0.0340075, No Iterations 4
time step continuity errors : sum local = 9.94808e-13, global = -9.91201e-15, cumulative = 7.38617e-13
Pressure gradient source: uncorrected Ubar = 85.3937, pressure gradient = 5033.27
DILUPBiCGStab:  Solving for omega, Initial residual = 1.43076e-06, Final residual = 3.27589e-09, No Iterations 1
DILUPBiCGStab:  Solving for k, Initial residual = 0.00136179, Final residual = 7.30533e-06, No Iterations 2
bounding k, min: 0 max: 0.0260757 average: 0.0102949
ExecutionTime = 0.28 s  ClockTime = 7 s

Time = 13

DILUPBiCGStab:  Solving for Ux, Initial residual = 0.0100751, Final residual = 7.6881e-05, No Iterations 3
DILUPBiCGStab:  Solving for Uy, Initial residual = 0.458562, Final residual = 0.00267977, No Iterations 4
DILUPBiCGStab:  Solving for Uz, Initial residual = 0.423072, Final residual = 0.00387638, No Iterations 4
Pressure gradient source: uncorrected Ubar = 85.3525, pressure gradient = 12869.2
GAMG:  Solving for p, Initial residual = 0.41655, Final residual = 0.0351218, No Iterations 4
time step continuity errors : sum local = 7.19796e-13, global = -8.02721e-14, cumulative = 6.58345e-13
Pressure gradient source: uncorrected Ubar = 85.3938, pressure gradient = 5256.73
DILUPBiCGStab:  Solving for omega, Initial residual = 7.95575e-07, Final residual = 3.10235e-09, No Iterations 1
DILUPBiCGStab:  Solving for k, Initial residual = 0.00130176, Final residual = 8.65766e-06, No Iterations 2
bounding k, min: 0 max: 0.027867 average: 0.0104647
ExecutionTime = 0.3 s  ClockTime = 7 s

Time = 14

DILUPBiCGStab:  Solving for Ux, Initial residual = 0.0093964, Final residual = 7.82057e-05, No Iterations 3
DILUPBiCGStab:  Solving for Uy, Initial residual = 0.393914, Final residual = 0.00268717, No Iterations 4
DILUPBiCGStab:  Solving for Uz, Initial residual = 0.486312, Final residual = 0.00321052, No Iterations 4
Pressure gradient source: uncorrected Ubar = 85.3511, pressure gradient = 13333.8
GAMG:  Solving for p, Initial residual = 0.354612, Final residual = 0.0306916, No Iterations 4
time step continuity errors : sum local = 6.07793e-13, global = -2.0226e-14, cumulative = 6.38119e-13
Pressure gradient source: uncorrected Ubar = 85.3937, pressure gradient = 5488.42
DILUPBiCGStab:  Solving for omega, Initial residual = 7.17271e-07, Final residual = 3.0305e-09, No Iterations 1
DILUPBiCGStab:  Solving for k, Initial residual = 0.00131379, Final residual = 1.17391e-05, No Iterations 2
bounding k, min: 0 max: 0.0301205 average: 0.0107119
ExecutionTime = 0.32 s  ClockTime = 7 s

Time = 15

DILUPBiCGStab:  Solving for Ux, Initial residual = 0.00881045, Final residual = 7.85276e-05, No Iterations 3
DILUPBiCGStab:  Solving for Uy, Initial residual = 0.413711, Final residual = 0.00322263, No Iterations 4
DILUPBiCGStab:  Solving for Uz, Initial residual = 0.393346, Final residual = 0.00295635, No Iterations 4
Pressure gradient source: uncorrected Ubar = 85.3499, pressure gradient = 13784.2
GAMG:  Solving for p, Initial residual = 0.369508, Final residual = 0.0283848, No Iterations 4
time step continuity errors : sum local = 9.19945e-13, global = 3.8169e-13, cumulative = 1.01981e-12
Pressure gradient source: uncorrected Ubar = 85.3937, pressure gradient = 5724.07
DILUPBiCGStab:  Solving for omega, Initial residual = 5.22489e-07, Final residual = 2.97419e-09, No Iterations 1
DILUPBiCGStab:  Solving for k, Initial residual = 0.00136427, Final residual = 3.61056e-06, No Iterations 3
bounding k, min: 0 max: 0.0326898 average: 0.0110388
ExecutionTime = 0.33 s  ClockTime = 7 s

Time = 16

DILUPBiCGStab:  Solving for Ux, Initial residual = 0.00830283, Final residual = 7.80744e-05, No Iterations 3
DILUPBiCGStab:  Solving for Uy, Initial residual = 0.357223, Final residual = 0.00293884, No Iterations 4
DILUPBiCGStab:  Solving for Uz, Initial residual = 0.381076, Final residual = 0.00352608, No Iterations 4
Pressure gradient source: uncorrected Ubar = 85.3489, pressure gradient = 14220.4
GAMG:  Solving for p, Initial residual = 0.369593, Final residual = 0.0220589, No Iterations 4
time step continuity errors : sum local = 7.39207e-13, global = -1.79842e-13, cumulative = 8.39967e-13
Pressure gradient source: uncorrected Ubar = 85.3937, pressure gradient = 5961.66
DILUPBiCGStab:  Solving for omega, Initial residual = 5.10671e-07, Final residual = 2.98934e-09, No Iterations 1
DILUPBiCGStab:  Solving for k, Initial residual = 0.00143652, Final residual = 4.75206e-06, No Iterations 3
bounding k, min: 0 max: 0.0358528 average: 0.0114463
ExecutionTime = 0.36 s  ClockTime = 7 s

Time = 17

DILUPBiCGStab:  Solving for Ux, Initial residual = 0.00785439, Final residual = 7.72995e-05, No Iterations 3
DILUPBiCGStab:  Solving for Uy, Initial residual = 0.439829, Final residual = 0.00291424, No Iterations 4
DILUPBiCGStab:  Solving for Uz, Initial residual = 0.495033, Final residual = 0.00244372, No Iterations 4
Pressure gradient source: uncorrected Ubar = 85.3481, pressure gradient = 14625.5
GAMG:  Solving for p, Initial residual = 0.328276, Final residual = 0.0255517, No Iterations 4
time step continuity errors : sum local = 4.01017e-13, global = -3.64472e-14, cumulative = 8.0352e-13
Pressure gradient source: uncorrected Ubar = 85.3937, pressure gradient = 6198.66
DILUPBiCGStab:  Solving for omega, Initial residual = 4.4308e-07, Final residual = 2.9982e-09, No Iterations 1
DILUPBiCGStab:  Solving for k, Initial residual = 0.00152905, Final residual = 6.54554e-06, No Iterations 3
bounding k, min: 0 max: 0.0394037 average: 0.0119375
ExecutionTime = 0.37 s  ClockTime = 7 s

Time = 18

DILUPBiCGStab:  Solving for Ux, Initial residual = 0.00745577, Final residual = 2.91056e-05, No Iterations 3
DILUPBiCGStab:  Solving for Uy, Initial residual = 0.23137, Final residual = 0.00129045, No Iterations 4
DILUPBiCGStab:  Solving for Uz, Initial residual = 0.378502, Final residual = 0.00253748, No Iterations 4
Pressure gradient source: uncorrected Ubar = 85.3529, pressure gradient = 13990.1
GAMG:  Solving for p, Initial residual = 0.31089, Final residual = 0.0186025, No Iterations 4
time step continuity errors : sum local = 4.29269e-13, global = -8.94512e-14, cumulative = 7.14069e-13
Pressure gradient source: uncorrected Ubar = 85.3937, pressure gradient = 6431.42
DILUPBiCGStab:  Solving for omega, Initial residual = 4.08691e-07, Final residual = 3.0379e-09, No Iterations 1
DILUPBiCGStab:  Solving for k, Initial residual = 0.00163256, Final residual = 8.23173e-06, No Iterations 3
bounding k, min: 0 max: 0.0436159 average: 0.0125162
ExecutionTime = 0.4 s  ClockTime = 7 s

Time = 19

DILUPBiCGStab:  Solving for Ux, Initial residual = 0.00710341, Final residual = 2.95443e-05, No Iterations 3
DILUPBiCGStab:  Solving for Uy, Initial residual = 0.408319, Final residual = 0.00373503, No Iterations 4
DILUPBiCGStab:  Solving for Uz, Initial residual = 0.288584, Final residual = 0.00200841, No Iterations 4
Pressure gradient source: uncorrected Ubar = 85.3529, pressure gradient = 14229.4
GAMG:  Solving for p, Initial residual = 0.314571, Final residual = 0.0198262, No Iterations 4
time step continuity errors : sum local = 7.35452e-13, global = 2.65235e-13, cumulative = 9.79303e-13
Pressure gradient source: uncorrected Ubar = 85.3938, pressure gradient = 6655.58
DILUPBiCGStab:  Solving for omega, Initial residual = 3.71349e-07, Final residual = 3.07896e-09, No Iterations 1
DILUPBiCGStab:  Solving for k, Initial residual = 0.00173941, Final residual = 9.82929e-06, No Iterations 3
bounding k, min: 0 max: 0.0483503 average: 0.0131858
ExecutionTime = 0.41 s  ClockTime = 7 s

Time = 20

DILUPBiCGStab:  Solving for Ux, Initial residual = 0.00678357, Final residual = 3.05284e-05, No Iterations 3
DILUPBiCGStab:  Solving for Uy, Initial residual = 0.379615, Final residual = 0.00367156, No Iterations 4
DILUPBiCGStab:  Solving for Uz, Initial residual = 0.422943, Final residual = 0.00304537, No Iterations 4
Pressure gradient source: uncorrected Ubar = 85.3531, pressure gradient = 14430
GAMG:  Solving for p, Initial residual = 0.311968, Final residual = 0.0269904, No Iterations 4
time step continuity errors : sum local = 1.02201e-12, global = -7.38293e-13, cumulative = 2.4101e-13
Pressure gradient source: uncorrected Ubar = 85.3938, pressure gradient = 6869.07
DILUPBiCGStab:  Solving for omega, Initial residual = 3.40623e-07, Final residual = 3.12929e-09, No Iterations 1
DILUPBiCGStab:  Solving for k, Initial residual = 0.00185357, Final residual = 1.14169e-05, No Iterations 3
bounding k, min: 0 max: 0.0537659 average: 0.0139516
ExecutionTime = 0.43 s  ClockTime = 7 s

Time = 21

DILUPBiCGStab:  Solving for Ux, Initial residual = 0.00649258, Final residual = 3.20711e-05, No Iterations 3
DILUPBiCGStab:  Solving for Uy, Initial residual = 0.387026, Final residual = 0.00262772, No Iterations 4
DILUPBiCGStab:  Solving for Uz, Initial residual = 0.311627, Final residual = 0.00274343, No Iterations 4
Pressure gradient source: uncorrected Ubar = 85.3531, pressure gradient = 14652
GAMG:  Solving for p, Initial residual = 0.352911, Final residual = 0.0280196, No Iterations 4
time step continuity errors : sum local = 9.81331e-13, global = 1.21536e-13, cumulative = 3.62546e-13
Pressure gradient source: uncorrected Ubar = 85.3939, pressure gradient = 7078.08
DILUPBiCGStab:  Solving for omega, Initial residual = 3.12733e-07, Final residual = 1.03668e-09, No Iterations 2
DILUPBiCGStab:  Solving for k, Initial residual = 0.00194423, Final residual = 1.27166e-05, No Iterations 3
bounding k, min: 0 max: 0.0596545 average: 0.0148022
ExecutionTime = 0.46 s  ClockTime = 7 s

Time = 22

DILUPBiCGStab:  Solving for Ux, Initial residual = 0.00622513, Final residual = 3.35883e-05, No Iterations 3
DILUPBiCGStab:  Solving for Uy, Initial residual = 0.327695, Final residual = 0.00269517, No Iterations 4
DILUPBiCGStab:  Solving for Uz, Initial residual = 0.316782, Final residual = 0.00298173, No Iterations 4
Pressure gradient source: uncorrected Ubar = 85.3527, pressure gradient = 14960.1
GAMG:  Solving for p, Initial residual = 0.323699, Final residual = 0.0271187, No Iterations 3
time step continuity errors : sum local = 6.43124e-13, global = -1.13244e-13, cumulative = 2.49303e-13
Pressure gradient source: uncorrected Ubar = 85.3938, pressure gradient = 7298.31
DILUPBiCGStab:  Solving for omega, Initial residual = 2.88637e-07, Final residual = 1.07305e-09, No Iterations 2
DILUPBiCGStab:  Solving for k, Initial residual = 0.00203439, Final residual = 1.36756e-05, No Iterations 3
bounding k, min: 0 max: 0.0658348 average: 0.0157411
ExecutionTime = 0.48 s  ClockTime = 7 s

Time = 23

DILUPBiCGStab:  Solving for Ux, Initial residual = 0.00597738, Final residual = 3.4626e-05, No Iterations 3
DILUPBiCGStab:  Solving for Uy, Initial residual = 0.363659, Final residual = 0.00223022, No Iterations 4
DILUPBiCGStab:  Solving for Uz, Initial residual = 0.272737, Final residual = 0.00268968, No Iterations 4
Pressure gradient source: uncorrected Ubar = 85.3516, pressure gradient = 15462
GAMG:  Solving for p, Initial residual = 0.281076, Final residual = 0.0211487, No Iterations 4
time step continuity errors : sum local = 5.15534e-13, global = -7.62384e-14, cumulative = 1.73064e-13
Pressure gradient source: uncorrected Ubar = 85.3936, pressure gradient = 7560.38
DILUPBiCGStab:  Solving for omega, Initial residual = 2.67074e-07, Final residual = 1.10731e-09, No Iterations 2
DILUPBiCGStab:  Solving for k, Initial residual = 0.00212538, Final residual = 1.42957e-05, No Iterations 3
bounding k, min: 0 max: 0.0727652 average: 0.0167731
ExecutionTime = 0.5 s  ClockTime = 7 s

Time = 24

DILUPBiCGStab:  Solving for Ux, Initial residual = 0.00574058, Final residual = 3.48347e-05, No Iterations 3
DILUPBiCGStab:  Solving for Uy, Initial residual = 0.393621, Final residual = 0.00176075, No Iterations 4
DILUPBiCGStab:  Solving for Uz, Initial residual = 0.396412, Final residual = 0.0026719, No Iterations 4
Pressure gradient source: uncorrected Ubar = 85.3482, pressure gradient = 16514.2
GAMG:  Solving for p, Initial residual = 0.290981, Final residual = 0.0250884, No Iterations 4
time step continuity errors : sum local = 2.38395e-13, global = 1.55888e-14, cumulative = 1.88653e-13
Pressure gradient source: uncorrected Ubar = 85.393, pressure gradient = 7948.51
DILUPBiCGStab:  Solving for omega, Initial residual = 2.48167e-07, Final residual = 1.131e-09, No Iterations 2
DILUPBiCGStab:  Solving for k, Initial residual = 0.00222093, Final residual = 1.48406e-05, No Iterations 3
bounding k, min: 0 max: 0.0802777 average: 0.0179067
ExecutionTime = 0.52 s  ClockTime = 7 s

Time = 25

DILUPBiCGStab:  Solving for Ux, Initial residual = 0.0055463, Final residual = 3.8727e-05, No Iterations 3
DILUPBiCGStab:  Solving for Uy, Initial residual = 0.337429, Final residual = 0.00233407, No Iterations 4
DILUPBiCGStab:  Solving for Uz, Initial residual = 0.333554, Final residual = 0.00311963, No Iterations 4
Pressure gradient source: uncorrected Ubar = 85.3689, pressure gradient = 12820.4
GAMG:  Solving for p, Initial residual = 0.288615, Final residual = 0.0185113, No Iterations 4
time step continuity errors : sum local = 3.4675e-13, global = 1.37632e-13, cumulative = 3.26285e-13
Pressure gradient source: uncorrected Ubar = 85.3956, pressure gradient = 7844.57
DILUPBiCGStab:  Solving for omega, Initial residual = 2.30796e-07, Final residual = 1.15838e-09, No Iterations 2
DILUPBiCGStab:  Solving for k, Initial residual = 0.00231326, Final residual = 1.54057e-05, No Iterations 3
bounding k, min: 0 max: 0.0883484 average: 0.0191473
ExecutionTime = 0.53 s  ClockTime = 7 s

Time = 26

DILUPBiCGStab:  Solving for Ux, Initial residual = 0.00534397, Final residual = 3.87424e-05, No Iterations 3
DILUPBiCGStab:  Solving for Uy, Initial residual = 0.311428, Final residual = 0.00213266, No Iterations 4
DILUPBiCGStab:  Solving for Uz, Initial residual = 0.26606, Final residual = 0.00172162, No Iterations 5
Pressure gradient source: uncorrected Ubar = 85.3537, pressure gradient = 15600.4
GAMG:  Solving for p, Initial residual = 0.289428, Final residual = 0.0256918, No Iterations 3
time step continuity errors : sum local = 6.50406e-13, global = 1.22132e-13, cumulative = 4.48417e-13
Pressure gradient source: uncorrected Ubar = 85.3938, pressure gradient = 8066.62
DILUPBiCGStab:  Solving for omega, Initial residual = 2.15537e-07, Final residual = 1.17789e-09, No Iterations 2
DILUPBiCGStab:  Solving for k, Initial residual = 0.0024196, Final residual = 1.59288e-05, No Iterations 3
bounding k, min: 0 max: 0.0971999 average: 0.02051
ExecutionTime = 0.56 s  ClockTime = 7 s

Time = 27

DILUPBiCGStab:  Solving for Ux, Initial residual = 0.00516123, Final residual = 3.99862e-05, No Iterations 3
DILUPBiCGStab:  Solving for Uy, Initial residual = 0.151881, Final residual = 0.000974567, No Iterations 4
DILUPBiCGStab:  Solving for Uz, Initial residual = 0.358281, Final residual = 0.00335052, No Iterations 4
Pressure gradient source: uncorrected Ubar = 85.3573, pressure gradient = 15147.8
GAMG:  Solving for p, Initial residual = 0.251571, Final residual = 0.0152136, No Iterations 4
time step continuity errors : sum local = 5.09143e-13, global = 3.54357e-13, cumulative = 8.02774e-13
Pressure gradient source: uncorrected Ubar = 85.3942, pressure gradient = 8219.56
DILUPBiCGStab:  Solving for omega, Initial residual = 2.01397e-07, Final residual = 1.18866e-09, No Iterations 2
DILUPBiCGStab:  Solving for k, Initial residual = 0.00255258, Final residual = 1.65884e-05, No Iterations 3
bounding k, min: 0 max: 0.107467 average: 0.0220209
ExecutionTime = 0.57 s  ClockTime = 7 s

Time = 28

DILUPBiCGStab:  Solving for Ux, Initial residual = 0.00498674, Final residual = 4.02178e-05, No Iterations 3
DILUPBiCGStab:  Solving for Uy, Initial residual = 0.275212, Final residual = 0.00251254, No Iterations 4
DILUPBiCGStab:  Solving for Uz, Initial residual = 0.282347, Final residual = 0.00174799, No Iterations 5
Pressure gradient source: uncorrected Ubar = 85.3554, pressure gradient = 15729.4
GAMG:  Solving for p, Initial residual = 0.312988, Final residual = 0.0230022, No Iterations 4
time step continuity errors : sum local = 3.80318e-13, global = -6.52497e-14, cumulative = 7.37524e-13
Pressure gradient source: uncorrected Ubar = 85.3939, pressure gradient = 8436.78
DILUPBiCGStab:  Solving for omega, Initial residual = 1.88797e-07, Final residual = 1.19427e-09, No Iterations 2
DILUPBiCGStab:  Solving for k, Initial residual = 0.00273965, Final residual = 1.75414e-05, No Iterations 3
bounding k, min: 0 max: 0.11997 average: 0.0237272
ExecutionTime = 0.6 s  ClockTime = 7 s

Time = 29

DILUPBiCGStab:  Solving for Ux, Initial residual = 0.00482519, Final residual = 4.11009e-05, No Iterations 3
DILUPBiCGStab:  Solving for Uy, Initial residual = 0.387641, Final residual = 0.00258871, No Iterations 4
DILUPBiCGStab:  Solving for Uz, Initial residual = 0.336321, Final residual = 0.00287487, No Iterations 4
Pressure gradient source: uncorrected Ubar = 85.3591, pressure gradient = 15254.2
GAMG:  Solving for p, Initial residual = 0.350766, Final residual = 0.0208878, No Iterations 4
time step continuity errors : sum local = 4.66625e-13, global = -2.06416e-13, cumulative = 5.31108e-13
Pressure gradient source: uncorrected Ubar = 85.3942, pressure gradient = 8587.3
DILUPBiCGStab:  Solving for omega, Initial residual = 1.77056e-07, Final residual = 1.18614e-09, No Iterations 2
DILUPBiCGStab:  Solving for k, Initial residual = 0.00301035, Final residual = 1.87047e-05, No Iterations 3
bounding k, min: 0 max: 0.136189 average: 0.025707
ExecutionTime = 0.62 s  ClockTime = 7 s

Time = 30

DILUPBiCGStab:  Solving for Ux, Initial residual = 0.00466723, Final residual = 4.04552e-05, No Iterations 3
DILUPBiCGStab:  Solving for Uy, Initial residual = 0.286564, Final residual = 0.00179958, No Iterations 4
DILUPBiCGStab:  Solving for Uz, Initial residual = 0.36189, Final residual = 0.00340632, No Iterations 4
Pressure gradient source: uncorrected Ubar = 85.3554, pressure gradient = 16204.4
GAMG:  Solving for p, Initial residual = 0.312216, Final residual = 0.0167583, No Iterations 4
time step continuity errors : sum local = 6.72648e-13, global = -2.1136e-13, cumulative = 3.19748e-13
Pressure gradient source: uncorrected Ubar = 85.3936, pressure gradient = 8853.4
DILUPBiCGStab:  Solving for omega, Initial residual = 1.66254e-07, Final residual = 1.1493e-09, No Iterations 2
DILUPBiCGStab:  Solving for k, Initial residual = 0.00341471, Final residual = 2.03338e-05, No Iterations 3
bounding k, min: 0 max: 0.158607 average: 0.0280924
ExecutionTime = 0.64 s  ClockTime = 7 s

Time = 31

DILUPBiCGStab:  Solving for Ux, Initial residual = 0.00452319, Final residual = 4.13669e-05, No Iterations 3
DILUPBiCGStab:  Solving for Uy, Initial residual = 0.320787, Final residual = 0.00255166, No Iterations 4
DILUPBiCGStab:  Solving for Uz, Initial residual = 0.193906, Final residual = 0.00126258, No Iterations 4
Pressure gradient source: uncorrected Ubar = 85.3627, pressure gradient = 15059
GAMG:  Solving for p, Initial residual = 0.294486, Final residual = 0.0229156, No Iterations 3
time step continuity errors : sum local = 4.83785e-13, global = -1.88592e-13, cumulative = 1.31155e-13
Pressure gradient source: uncorrected Ubar = 85.3944, pressure gradient = 8976.46
DILUPBiCGStab:  Solving for omega, Initial residual = 1.56188e-07, Final residual = 1.09279e-09, No Iterations 2
DILUPBiCGStab:  Solving for k, Initial residual = 0.00397484, Final residual = 2.21548e-05, No Iterations 3
bounding k, min: 0 max: 0.189948 average: 0.0310752
ExecutionTime = 0.66 s  ClockTime = 7 s

Time = 32

DILUPBiCGStab:  Solving for Ux, Initial residual = 0.00438729, Final residual = 4.2777e-05, No Iterations 3
DILUPBiCGStab:  Solving for Uy, Initial residual = 0.298619, Final residual = 0.00215913, No Iterations 4
DILUPBiCGStab:  Solving for Uz, Initial residual = 0.239829, Final residual = 0.00197986, No Iterations 5
Pressure gradient source: uncorrected Ubar = 85.3665, pressure gradient = 14415.5
GAMG:  Solving for p, Initial residual = 0.286395, Final residual = 0.0263342, No Iterations 3
time step continuity errors : sum local = 3.99761e-13, global = 1.57173e-13, cumulative = 2.88328e-13
Pressure gradient source: uncorrected Ubar = 85.3948, pressure gradient = 9012.61
DILUPBiCGStab:  Solving for omega, Initial residual = 1.46746e-07, Final residual = 1.04087e-09, No Iterations 2
DILUPBiCGStab:  Solving for k, Initial residual = 0.00457098, Final residual = 2.40223e-05, No Iterations 3
bounding k, min: 0 max: 0.22967 average: 0.0348296
ExecutionTime = 0.68 s  ClockTime = 7 s

Time = 33

DILUPBiCGStab:  Solving for Ux, Initial residual = 0.00425338, Final residual = 1.89459e-05, No Iterations 4
DILUPBiCGStab:  Solving for Uy, Initial residual = 0.395678, Final residual = 0.00262864, No Iterations 4
DILUPBiCGStab:  Solving for Uz, Initial residual = 0.316811, Final residual = 0.00219615, No Iterations 4
Pressure gradient source: uncorrected Ubar = 85.3799, pressure gradient = 11913.5
GAMG:  Solving for p, Initial residual = 0.302297, Final residual = 0.0245716, No Iterations 3
time step continuity errors : sum local = 3.47539e-13, global = -1.39835e-13, cumulative = 1.48494e-13
Pressure gradient source: uncorrected Ubar = 85.3942, pressure gradient = 9160.3
DILUPBiCGStab:  Solving for omega, Initial residual = 1.38058e-07, Final residual = 1.01285e-09, No Iterations 2
DILUPBiCGStab:  Solving for k, Initial residual = 0.00518747, Final residual = 2.58002e-05, No Iterations 3
bounding k, min: 0 max: 0.280377 average: 0.0395629
ExecutionTime = 0.7 s  ClockTime = 7 s

Time = 34

DILUPBiCGStab:  Solving for Ux, Initial residual = 0.00412447, Final residual = 1.88855e-05, No Iterations 4
DILUPBiCGStab:  Solving for Uy, Initial residual = 0.297725, Final residual = 0.00192681, No Iterations 4
DILUPBiCGStab:  Solving for Uz, Initial residual = 0.220884, Final residual = 0.00171566, No Iterations 4
Pressure gradient source: uncorrected Ubar = 85.3796, pressure gradient = 12119.2
GAMG:  Solving for p, Initial residual = 0.265219, Final residual = 0.0199268, No Iterations 3
time step continuity errors : sum local = 7.12233e-13, global = -4.00839e-13, cumulative = -2.52346e-13
Pressure gradient source: uncorrected Ubar = 85.3942, pressure gradient = 9315.29
DILUPBiCGStab:  Solving for omega, Initial residual = 1.2998e-07, Final residual = 1.01097e-09, No Iterations 2
DILUPBiCGStab:  Solving for k, Initial residual = 0.0058528, Final residual = 2.73023e-05, No Iterations 3
bounding k, min: 0 max: 0.345875 average: 0.0455611
ExecutionTime = 0.71 s  ClockTime = 7 s

Time = 35

DILUPBiCGStab:  Solving for Ux, Initial residual = 0.00400056, Final residual = 1.86058e-05, No Iterations 4
DILUPBiCGStab:  Solving for Uy, Initial residual = 0.441081, Final residual = 0.00316919, No Iterations 4
DILUPBiCGStab:  Solving for Uz, Initial residual = 0.320422, Final residual = 0.00204026, No Iterations 5
Pressure gradient source: uncorrected Ubar = 85.3791, pressure gradient = 12399.5
GAMG:  Solving for p, Initial residual = 0.30829, Final residual = 0.0197053, No Iterations 4
time step continuity errors : sum local = 3.39339e-13, global = -1.21685e-13, cumulative = -3.74031e-13
Pressure gradient source: uncorrected Ubar = 85.3941, pressure gradient = 9486.01
DILUPBiCGStab:  Solving for omega, Initial residual = 1.2271e-07, Final residual = 1.02003e-09, No Iterations 2
DILUPBiCGStab:  Solving for k, Initial residual = 0.00654163, Final residual = 2.86963e-05, No Iterations 3
bounding k, min: 0 max: 0.430884 average: 0.0531785
ExecutionTime = 0.74 s  ClockTime = 7 s

Time = 36

DILUPBiCGStab:  Solving for Ux, Initial residual = 0.00387869, Final residual = 1.76212e-05, No Iterations 4
DILUPBiCGStab:  Solving for Uy, Initial residual = 0.319136, Final residual = 0.00174044, No Iterations 4
DILUPBiCGStab:  Solving for Uz, Initial residual = 0.506971, Final residual = 0.0043871, No Iterations 4
Pressure gradient source: uncorrected Ubar = 85.3763, pressure gradient = 13166.6
GAMG:  Solving for p, Initial residual = 0.294041, Final residual = 0.0241465, No Iterations 3
time step continuity errors : sum local = 5.68269e-13, global = 1.3282e-13, cumulative = -2.41211e-13
Pressure gradient source: uncorrected Ubar = 85.3938, pressure gradient = 9724.82
DILUPBiCGStab:  Solving for omega, Initial residual = 1.16085e-07, Final residual = 1.03147e-09, No Iterations 2
DILUPBiCGStab:  Solving for k, Initial residual = 0.00724858, Final residual = 2.97757e-05, No Iterations 3
bounding k, min: 0 max: 0.541416 average: 0.0628905
ExecutionTime = 0.76 s  ClockTime = 7 s

Time = 37

DILUPBiCGStab:  Solving for Ux, Initial residual = 0.00376645, Final residual = 1.83696e-05, No Iterations 4
DILUPBiCGStab:  Solving for Uy, Initial residual = 0.306282, Final residual = 0.00225071, No Iterations 4
DILUPBiCGStab:  Solving for Uz, Initial residual = 0.250874, Final residual = 0.0021762, No Iterations 4
Pressure gradient source: uncorrected Ubar = 85.3847, pressure gradient = 11751.1
GAMG:  Solving for p, Initial residual = 0.292451, Final residual = 0.023333, No Iterations 4
time step continuity errors : sum local = 3.31323e-13, global = 8.29043e-14, cumulative = -1.58307e-13
Pressure gradient source: uncorrected Ubar = 85.3947, pressure gradient = 9792.8
DILUPBiCGStab:  Solving for omega, Initial residual = 1.09913e-07, Final residual = 1.0486e-09, No Iterations 2
DILUPBiCGStab:  Solving for k, Initial residual = 0.00793822, Final residual = 3.10256e-05, No Iterations 3
bounding k, min: 0 max: 0.684925 average: 0.0752798
ExecutionTime = 0.78 s  ClockTime = 8 s

Time = 38

DILUPBiCGStab:  Solving for Ux, Initial residual = 0.003655, Final residual = 1.89979e-05, No Iterations 4
DILUPBiCGStab:  Solving for Uy, Initial residual = 0.355444, Final residual = 0.0026174, No Iterations 4
DILUPBiCGStab:  Solving for Uz, Initial residual = 0.339407, Final residual = 0.00306551, No Iterations 4
Pressure gradient source: uncorrected Ubar = 85.3836, pressure gradient = 12038.9
GAMG:  Solving for p, Initial residual = 0.271153, Final residual = 0.0156402, No Iterations 4
time step continuity errors : sum local = 6.88776e-13, global = -3.38118e-14, cumulative = -1.92119e-13
Pressure gradient source: uncorrected Ubar = 85.3945, pressure gradient = 9884.62
DILUPBiCGStab:  Solving for omega, Initial residual = 1.04133e-07, Final residual = 3.39639e-10, No Iterations 2
DILUPBiCGStab:  Solving for k, Initial residual = 0.00859011, Final residual = 8.40017e-05, No Iterations 2
bounding k, min: 0 max: 0.870788 average: 0.090959
ExecutionTime = 0.79 s  ClockTime = 8 s

Time = 39

DILUPBiCGStab:  Solving for Ux, Initial residual = 0.00354413, Final residual = 1.86052e-05, No Iterations 4
DILUPBiCGStab:  Solving for Uy, Initial residual = 0.443276, Final residual = 0.00256918, No Iterations 4
DILUPBiCGStab:  Solving for Uz, Initial residual = 0.410699, Final residual = 0.00351788, No Iterations 4
Pressure gradient source: uncorrected Ubar = 85.38, pressure gradient = 12867.6
GAMG:  Solving for p, Initial residual = 0.292422, Final residual = 0.0233305, No Iterations 3
time step continuity errors : sum local = 2.43836e-13, global = 1.22968e-13, cumulative = -6.9151e-14
Pressure gradient source: uncorrected Ubar = 85.3941, pressure gradient = 10057.2
DILUPBiCGStab:  Solving for omega, Initial residual = 9.85549e-08, Final residual = 3.27235e-10, No Iterations 2
DILUPBiCGStab:  Solving for k, Initial residual = 0.0091919, Final residual = 8.60515e-05, No Iterations 2
bounding k, min: 0 max: 1.11029 average: 0.110893
ExecutionTime = 0.82 s  ClockTime = 8 s

Time = 40

DILUPBiCGStab:  Solving for Ux, Initial residual = 0.00343541, Final residual = 1.83583e-05, No Iterations 4
DILUPBiCGStab:  Solving for Uy, Initial residual = 0.373019, Final residual = 0.00271661, No Iterations 4
DILUPBiCGStab:  Solving for Uz, Initial residual = 0.234889, Final residual = 0.00179715, No Iterations 4
Pressure gradient source: uncorrected Ubar = 85.3805, pressure gradient = 12970.6
GAMG:  Solving for p, Initial residual = 0.221583, Final residual = 0.0123554, No Iterations 3
time step continuity errors : sum local = 4.1208e-13, global = 3.1453e-13, cumulative = 2.45379e-13
Pressure gradient source: uncorrected Ubar = 85.3942, pressure gradient = 10227.2
DILUPBiCGStab:  Solving for omega, Initial residual = 9.33887e-08, Final residual = 3.18331e-10, No Iterations 2
DILUPBiCGStab:  Solving for k, Initial residual = 0.0097569, Final residual = 8.78741e-05, No Iterations 2
bounding k, min: 0 max: 1.41715 average: 0.136235
ExecutionTime = 0.83 s  ClockTime = 8 s

Time = 41

DILUPBiCGStab:  Solving for Ux, Initial residual = 0.00332695, Final residual = 1.79255e-05, No Iterations 4
DILUPBiCGStab:  Solving for Uy, Initial residual = 0.312414, Final residual = 0.00183159, No Iterations 4
DILUPBiCGStab:  Solving for Uz, Initial residual = 0.254933, Final residual = 0.00168627, No Iterations 4
Pressure gradient source: uncorrected Ubar = 85.3799, pressure gradient = 13310.5
GAMG:  Solving for p, Initial residual = 0.304096, Final residual = 0.0229127, No Iterations 3
time step continuity errors : sum local = 1.07506e-12, global = 5.75909e-13, cumulative = 8.21288e-13
Pressure gradient source: uncorrected Ubar = 85.3941, pressure gradient = 10420.2
DILUPBiCGStab:  Solving for omega, Initial residual = 8.86121e-08, Final residual = 3.12244e-10, No Iterations 2
DILUPBiCGStab:  Solving for k, Initial residual = 0.0102652, Final residual = 8.94262e-05, No Iterations 2
bounding k, min: 0 max: 1.80693 average: 0.168376
ExecutionTime = 0.86 s  ClockTime = 8 s

Time = 42

DILUPBiCGStab:  Solving for Ux, Initial residual = 0.0032195, Final residual = 1.77018e-05, No Iterations 4
DILUPBiCGStab:  Solving for Uy, Initial residual = 0.330148, Final residual = 0.00246739, No Iterations 4
DILUPBiCGStab:  Solving for Uz, Initial residual = 0.223975, Final residual = 0.00154656, No Iterations 4
Pressure gradient source: uncorrected Ubar = 85.3804, pressure gradient = 13419
GAMG:  Solving for p, Initial residual = 0.28704, Final residual = 0.0207032, No Iterations 3
time step continuity errors : sum local = 9.70395e-13, global = 7.08885e-13, cumulative = 1.53017e-12
Pressure gradient source: uncorrected Ubar = 85.3941, pressure gradient = 10609.2
DILUPBiCGStab:  Solving for omega, Initial residual = 8.41249e-08, Final residual = 3.08474e-10, No Iterations 2
DILUPBiCGStab:  Solving for k, Initial residual = 0.0106961, Final residual = 8.97546e-05, No Iterations 2
bounding k, min: 0 max: 2.29624 average: 0.208948
ExecutionTime = 0.88 s  ClockTime = 8 s

Time = 43

DILUPBiCGStab:  Solving for Ux, Initial residual = 0.00311131, Final residual = 1.74946e-05, No Iterations 4
DILUPBiCGStab:  Solving for Uy, Initial residual = 0.234001, Final residual = 0.00159626, No Iterations 4
DILUPBiCGStab:  Solving for Uz, Initial residual = 0.236182, Final residual = 0.00215591, No Iterations 4
Pressure gradient source: uncorrected Ubar = 85.3798, pressure gradient = 13776.7
GAMG:  Solving for p, Initial residual = 0.21883, Final residual = 0.0166272, No Iterations 3
time step continuity errors : sum local = 3.11254e-13, global = -4.11455e-14, cumulative = 1.48903e-12
Pressure gradient source: uncorrected Ubar = 85.394, pressure gradient = 10821.3
DILUPBiCGStab:  Solving for omega, Initial residual = 7.98844e-08, Final residual = 3.0655e-10, No Iterations 2
DILUPBiCGStab:  Solving for k, Initial residual = 0.0110627, Final residual = 9.00201e-05, No Iterations 2
bounding k, min: 0 max: 2.90154 average: 0.259905
ExecutionTime = 0.89 s  ClockTime = 8 s

Time = 44

DILUPBiCGStab:  Solving for Ux, Initial residual = 0.00300231, Final residual = 1.72401e-05, No Iterations 4
DILUPBiCGStab:  Solving for Uy, Initial residual = 0.366747, Final residual = 0.00281439, No Iterations 4
DILUPBiCGStab:  Solving for Uz, Initial residual = 0.358224, Final residual = 0.00356808, No Iterations 4
Pressure gradient source: uncorrected Ubar = 85.3791, pressure gradient = 14201.3
GAMG:  Solving for p, Initial residual = 0.307922, Final residual = 0.0281877, No Iterations 3
time step continuity errors : sum local = 4.11167e-13, global = -1.11819e-13, cumulative = 1.37721e-12
Pressure gradient source: uncorrected Ubar = 85.3939, pressure gradient = 11061
DILUPBiCGStab:  Solving for omega, Initial residual = 7.5867e-08, Final residual = 3.05545e-10, No Iterations 2
DILUPBiCGStab:  Solving for k, Initial residual = 0.0113386, Final residual = 8.9042e-05, No Iterations 2
bounding k, min: 0 max: 3.63749 average: 0.323382
ExecutionTime = 0.91 s  ClockTime = 8 s

Time = 45

DILUPBiCGStab:  Solving for Ux, Initial residual = 0.00289129, Final residual = 1.697e-05, No Iterations 4
DILUPBiCGStab:  Solving for Uy, Initial residual = 0.407477, Final residual = 0.00272857, No Iterations 4
DILUPBiCGStab:  Solving for Uz, Initial residual = 0.311562, Final residual = 0.00289119, No Iterations 4
Pressure gradient source: uncorrected Ubar = 85.378, pressure gradient = 14741.6
GAMG:  Solving for p, Initial residual = 0.342932, Final residual = 0.0215102, No Iterations 3
time step continuity errors : sum local = 3.90473e-13, global = 1.63062e-14, cumulative = 1.39351e-12
Pressure gradient source: uncorrected Ubar = 85.3937, pressure gradient = 11338.4
DILUPBiCGStab:  Solving for omega, Initial residual = 7.2072e-08, Final residual = 3.04294e-10, No Iterations 2
DILUPBiCGStab:  Solving for k, Initial residual = 0.0115366, Final residual = 8.81018e-05, No Iterations 2
bounding k, min: 0 max: 4.51501 average: 0.401751
ExecutionTime = 0.93 s  ClockTime = 8 s

Time = 46

DILUPBiCGStab:  Solving for Ux, Initial residual = 0.00277875, Final residual = 1.66575e-05, No Iterations 4
DILUPBiCGStab:  Solving for Uy, Initial residual = 0.358346, Final residual = 0.00245657, No Iterations 4
DILUPBiCGStab:  Solving for Uz, Initial residual = 0.282367, Final residual = 0.00200571, No Iterations 4
Pressure gradient source: uncorrected Ubar = 85.3768, pressure gradient = 15362
GAMG:  Solving for p, Initial residual = 0.255389, Final residual = 0.0108781, No Iterations 3
time step continuity errors : sum local = 6.16658e-13, global = 3.57892e-13, cumulative = 1.75141e-12
Pressure gradient source: uncorrected Ubar = 85.3936, pressure gradient = 11658.9
DILUPBiCGStab:  Solving for omega, Initial residual = 6.84423e-08, Final residual = 3.03482e-10, No Iterations 2
DILUPBiCGStab:  Solving for k, Initial residual = 0.0116429, Final residual = 8.63996e-05, No Iterations 2
bounding k, min: 0 max: 5.5396 average: 0.497409
ExecutionTime = 0.95 s  ClockTime = 8 s

Time = 47

DILUPBiCGStab:  Solving for Ux, Initial residual = 0.00266335, Final residual = 1.6337e-05, No Iterations 4
DILUPBiCGStab:  Solving for Uy, Initial residual = 0.251346, Final residual = 0.00179473, No Iterations 4
DILUPBiCGStab:  Solving for Uz, Initial residual = 0.228478, Final residual = 0.00194984, No Iterations 5
Pressure gradient source: uncorrected Ubar = 85.3755, pressure gradient = 16073.8
GAMG:  Solving for p, Initial residual = 0.261191, Final residual = 0.0174531, No Iterations 3
time step continuity errors : sum local = 4.28081e-13, global = 2.81758e-13, cumulative = 2.03317e-12
Pressure gradient source: uncorrected Ubar = 85.3934, pressure gradient = 12029.1
DILUPBiCGStab:  Solving for omega, Initial residual = 6.49439e-08, Final residual = 3.02461e-10, No Iterations 2
DILUPBiCGStab:  Solving for k, Initial residual = 0.0116656, Final residual = 8.45639e-05, No Iterations 2
bounding k, min: 0 max: 6.71058 average: 0.612731
ExecutionTime = 0.97 s  ClockTime = 8 s

Time = 48

DILUPBiCGStab:  Solving for Ux, Initial residual = 0.00254538, Final residual = 1.62542e-05, No Iterations 4
DILUPBiCGStab:  Solving for Uy, Initial residual = 0.250081, Final residual = 0.00218226, No Iterations 4
DILUPBiCGStab:  Solving for Uz, Initial residual = 0.211631, Final residual = 0.00162531, No Iterations 4
Pressure gradient source: uncorrected Ubar = 85.3742, pressure gradient = 16887.4
GAMG:  Solving for p, Initial residual = 0.262819, Final residual = 0.0137151, No Iterations 3
time step continuity errors : sum local = 4.83498e-13, global = -1.24247e-14, cumulative = 2.02074e-12
Pressure gradient source: uncorrected Ubar = 85.3932, pressure gradient = 12455.2
DILUPBiCGStab:  Solving for omega, Initial residual = 6.18236e-08, Final residual = 3.01961e-10, No Iterations 2
DILUPBiCGStab:  Solving for k, Initial residual = 0.011609, Final residual = 8.28994e-05, No Iterations 2
bounding k, min: 0 max: 8.0212 average: 0.749887
ExecutionTime = 0.99 s  ClockTime = 8 s

Time = 49

DILUPBiCGStab:  Solving for Ux, Initial residual = 0.00242711, Final residual = 1.65173e-05, No Iterations 4
DILUPBiCGStab:  Solving for Uy, Initial residual = 0.226361, Final residual = 0.00218039, No Iterations 4
DILUPBiCGStab:  Solving for Uz, Initial residual = 0.249179, Final residual = 0.0020816, No Iterations 5
Pressure gradient source: uncorrected Ubar = 85.373, pressure gradient = 17751.7
GAMG:  Solving for p, Initial residual = 0.216055, Final residual = 0.0144941, No Iterations 3
time step continuity errors : sum local = 2.59183e-13, global = -1.64425e-13, cumulative = 1.85632e-12
Pressure gradient source: uncorrected Ubar = 85.393, pressure gradient = 12935
DILUPBiCGStab:  Solving for omega, Initial residual = 5.9025e-08, Final residual = 3.0254e-10, No Iterations 2
DILUPBiCGStab:  Solving for k, Initial residual = 0.0114755, Final residual = 8.06327e-05, No Iterations 2
bounding k, min: 0 max: 9.48297 average: 0.910669
ExecutionTime = 1.01 s  ClockTime = 8 s

Time = 50

DILUPBiCGStab:  Solving for Ux, Initial residual = 0.00231708, Final residual = 1.70066e-05, No Iterations 4
DILUPBiCGStab:  Solving for Uy, Initial residual = 0.279384, Final residual = 0.00223283, No Iterations 4
DILUPBiCGStab:  Solving for Uz, Initial residual = 0.273654, Final residual = 0.00218321, No Iterations 5
Pressure gradient source: uncorrected Ubar = 85.3713, pressure gradient = 18826.4
GAMG:  Solving for p, Initial residual = 0.2681, Final residual = 0.018747, No Iterations 4
time step continuity errors : sum local = 3.63564e-13, global = 1.7636e-14, cumulative = 1.87395e-12
Pressure gradient source: uncorrected Ubar = 85.3928, pressure gradient = 13482.1
DILUPBiCGStab:  Solving for omega, Initial residual = 5.65508e-08, Final residual = 3.02974e-10, No Iterations 2
DILUPBiCGStab:  Solving for k, Initial residual = 0.0112816, Final residual = 7.85643e-05, No Iterations 2
bounding k, min: 0 max: 11.0882 average: 1.09647
ExecutionTime = 1.03 s  ClockTime = 8 s

Time = 51

DILUPBiCGStab:  Solving for Ux, Initial residual = 0.00221441, Final residual = 1.69817e-05, No Iterations 4
DILUPBiCGStab:  Solving for Uy, Initial residual = 0.579667, Final residual = 0.00479518, No Iterations 5
DILUPBiCGStab:  Solving for Uz, Initial residual = 0.36557, Final residual = 0.00263787, No Iterations 5
Pressure gradient source: uncorrected Ubar = 85.3704, pressure gradient = 19832.2
GAMG:  Solving for p, Initial residual = 0.279034, Final residual = 0.0275083, No Iterations 3
time step continuity errors : sum local = 6.57451e-13, global = -2.10401e-13, cumulative = 1.66355e-12
Pressure gradient source: uncorrected Ubar = 85.3927, pressure gradient = 14076.2
DILUPBiCGStab:  Solving for omega, Initial residual = 5.43848e-08, Final residual = 3.05647e-10, No Iterations 2
DILUPBiCGStab:  Solving for k, Initial residual = 0.0109226, Final residual = 7.56585e-05, No Iterations 2
bounding k, min: 0 max: 12.749 average: 1.30675
ExecutionTime = 1.04 s  ClockTime = 8 s

Time = 52

DILUPBiCGStab:  Solving for Ux, Initial residual = 0.00211787, Final residual = 1.5842e-05, No Iterations 4
DILUPBiCGStab:  Solving for Uy, Initial residual = 0.429153, Final residual = 0.00307578, No Iterations 5
DILUPBiCGStab:  Solving for Uz, Initial residual = 0.403239, Final residual = 0.00320347, No Iterations 5
Pressure gradient source: uncorrected Ubar = 85.3707, pressure gradient = 20564.9
GAMG:  Solving for p, Initial residual = 0.273804, Final residual = 0.0246668, No Iterations 3
time step continuity errors : sum local = 5.56617e-13, global = -1.53674e-13, cumulative = 1.50988e-12
Pressure gradient source: uncorrected Ubar = 85.3927, pressure gradient = 14677.9
DILUPBiCGStab:  Solving for omega, Initial residual = 5.2537e-08, Final residual = 3.11215e-10, No Iterations 2
DILUPBiCGStab:  Solving for k, Initial residual = 0.0102612, Final residual = 7.17487e-05, No Iterations 2
bounding k, min: 0 max: 14.333 average: 1.53731
ExecutionTime = 1.06 s  ClockTime = 8 s

Time = 53

DILUPBiCGStab:  Solving for Ux, Initial residual = 0.00202121, Final residual = 1.45447e-05, No Iterations 4
DILUPBiCGStab:  Solving for Uy, Initial residual = 0.307711, Final residual = 0.00233586, No Iterations 4
DILUPBiCGStab:  Solving for Uz, Initial residual = 0.354385, Final residual = 0.00228168, No Iterations 5
Pressure gradient source: uncorrected Ubar = 85.3708, pressure gradient = 21345.3
GAMG:  Solving for p, Initial residual = 0.224562, Final residual = 0.0129407, No Iterations 3
time step continuity errors : sum local = 4.13664e-13, global = -2.87445e-13, cumulative = 1.22243e-12
Pressure gradient source: uncorrected Ubar = 85.3927, pressure gradient = 15301.2
DILUPBiCGStab:  Solving for omega, Initial residual = 5.07337e-08, Final residual = 3.09922e-10, No Iterations 2
DILUPBiCGStab:  Solving for k, Initial residual = 0.00953471, Final residual = 6.81355e-05, No Iterations 2
bounding k, min: 0 max: 15.8526 average: 1.78482
ExecutionTime = 1.08 s  ClockTime = 8 s

Time = 54

DILUPBiCGStab:  Solving for Ux, Initial residual = 0.00192418, Final residual = 1.32859e-05, No Iterations 4
DILUPBiCGStab:  Solving for Uy, Initial residual = 0.260188, Final residual = 0.00169964, No Iterations 4
DILUPBiCGStab:  Solving for Uz, Initial residual = 0.255984, Final residual = 0.00159422, No Iterations 5
Pressure gradient source: uncorrected Ubar = 85.3715, pressure gradient = 22004.7
GAMG:  Solving for p, Initial residual = 0.240645, Final residual = 0.0165588, No Iterations 3
time step continuity errors : sum local = 5.58732e-13, global = -3.07515e-13, cumulative = 9.14916e-13
Pressure gradient source: uncorrected Ubar = 85.3928, pressure gradient = 15938.5
DILUPBiCGStab:  Solving for omega, Initial residual = 4.90159e-08, Final residual = 2.94058e-10, No Iterations 2
DILUPBiCGStab:  Solving for k, Initial residual = 0.00885141, Final residual = 6.44266e-05, No Iterations 2
bounding k, min: 0 max: 17.3781 average: 2.04689
ExecutionTime = 1.09 s  ClockTime = 8 s

Time = 55

DILUPBiCGStab:  Solving for Ux, Initial residual = 0.00182912, Final residual = 1.19474e-05, No Iterations 4
DILUPBiCGStab:  Solving for Uy, Initial residual = 0.295714, Final residual = 0.00148315, No Iterations 4
DILUPBiCGStab:  Solving for Uz, Initial residual = 0.372889, Final residual = 0.00266054, No Iterations 5
Pressure gradient source: uncorrected Ubar = 85.3719, pressure gradient = 22754.6
GAMG:  Solving for p, Initial residual = 0.233051, Final residual = 0.0152104, No Iterations 3
time step continuity errors : sum local = 3.02522e-13, global = 2.36783e-13, cumulative = 1.1517e-12
Pressure gradient source: uncorrected Ubar = 85.3928, pressure gradient = 16602.3
DILUPBiCGStab:  Solving for omega, Initial residual = 4.71897e-08, Final residual = 2.68101e-10, No Iterations 2
DILUPBiCGStab:  Solving for k, Initial residual = 0.00823678, Final residual = 6.16343e-05, No Iterations 2
bounding k, min: 0 max: 18.8668 average: 2.3216
ExecutionTime = 1.12 s  ClockTime = 8 s

Time = 56

DILUPBiCGStab:  Solving for Ux, Initial residual = 0.00172811, Final residual = 1.0636e-05, No Iterations 4
DILUPBiCGStab:  Solving for Uy, Initial residual = 0.381083, Final residual = 0.00343185, No Iterations 4
DILUPBiCGStab:  Solving for Uz, Initial residual = 0.243621, Final residual = 0.00215981, No Iterations 5
Pressure gradient source: uncorrected Ubar = 85.372, pressure gradient = 23619.8
GAMG:  Solving for p, Initial residual = 0.233804, Final residual = 0.0137114, No Iterations 4
time step continuity errors : sum local = 3.62245e-13, global = 1.8036e-13, cumulative = 1.33206e-12
Pressure gradient source: uncorrected Ubar = 85.3927, pressure gradient = 17305.4
DILUPBiCGStab:  Solving for omega, Initial residual = 4.52723e-08, Final residual = 2.41546e-10, No Iterations 2
DILUPBiCGStab:  Solving for k, Initial residual = 0.00769474, Final residual = 5.91103e-05, No Iterations 2
bounding k, min: 0 max: 20.3426 average: 2.60741
ExecutionTime = 1.14 s  ClockTime = 8 s

Time = 57

DILUPBiCGStab:  Solving for Ux, Initial residual = 0.00162853, Final residual = 9.52093e-06, No Iterations 4
DILUPBiCGStab:  Solving for Uy, Initial residual = 0.3011, Final residual = 0.00216404, No Iterations 4
DILUPBiCGStab:  Solving for Uz, Initial residual = 0.413827, Final residual = 0.00364759, No Iterations 4
Pressure gradient source: uncorrected Ubar = 85.3728, pressure gradient = 24323.2
GAMG:  Solving for p, Initial residual = 0.211194, Final residual = 0.010523, No Iterations 4
time step continuity errors : sum local = 3.39519e-13, global = 1.45534e-13, cumulative = 1.47759e-12
Pressure gradient source: uncorrected Ubar = 85.3927, pressure gradient = 18024.1
DILUPBiCGStab:  Solving for omega, Initial residual = 4.33296e-08, Final residual = 2.22001e-10, No Iterations 2
DILUPBiCGStab:  Solving for k, Initial residual = 0.00722032, Final residual = 5.67143e-05, No Iterations 2
bounding k, min: 0 max: 21.8203 average: 2.903
ExecutionTime = 1.16 s  ClockTime = 8 s

Time = 58

DILUPBiCGStab:  Solving for Ux, Initial residual = 0.00152755, Final residual = 8.20356e-06, No Iterations 4
DILUPBiCGStab:  Solving for Uy, Initial residual = 0.282833, Final residual = 0.00164594, No Iterations 4
DILUPBiCGStab:  Solving for Uz, Initial residual = 0.211189, Final residual = 0.00173085, No Iterations 4
Pressure gradient source: uncorrected Ubar = 85.3731, pressure gradient = 25167.9
GAMG:  Solving for p, Initial residual = 0.184168, Final residual = 0.0144523, No Iterations 4
time step continuity errors : sum local = 5.61474e-13, global = 4.59462e-13, cumulative = 1.93706e-12
Pressure gradient source: uncorrected Ubar = 85.3927, pressure gradient = 18771.2
DILUPBiCGStab:  Solving for omega, Initial residual = 4.13903e-08, Final residual = 2.09358e-10, No Iterations 2
DILUPBiCGStab:  Solving for k, Initial residual = 0.00679319, Final residual = 5.47757e-05, No Iterations 2
bounding k, min: 0 max: 23.2837 average: 3.20704
ExecutionTime = 1.18 s  ClockTime = 8 s

Time = 59

DILUPBiCGStab:  Solving for Ux, Initial residual = 0.00142703, Final residual = 7.00262e-06, No Iterations 4
DILUPBiCGStab:  Solving for Uy, Initial residual = 0.303606, Final residual = 0.00223956, No Iterations 4
DILUPBiCGStab:  Solving for Uz, Initial residual = 0.240094, Final residual = 0.00139145, No Iterations 4
Pressure gradient source: uncorrected Ubar = 85.373, pressure gradient = 26194.5
GAMG:  Solving for p, Initial residual = 0.206115, Final residual = 0.018781, No Iterations 3
time step continuity errors : sum local = 5.43724e-13, global = 6.37693e-14, cumulative = 2.00082e-12
Pressure gradient source: uncorrected Ubar = 85.3927, pressure gradient = 19564.6
DILUPBiCGStab:  Solving for omega, Initial residual = 3.93416e-08, Final residual = 1.98483e-10, No Iterations 2
DILUPBiCGStab:  Solving for k, Initial residual = 0.00642807, Final residual = 5.26528e-05, No Iterations 2
bounding k, min: 0 max: 24.7369 average: 3.51893
ExecutionTime = 1.19 s  ClockTime = 8 s

Time = 60

DILUPBiCGStab:  Solving for Ux, Initial residual = 0.00132442, Final residual = 1.30877e-05, No Iterations 3
DILUPBiCGStab:  Solving for Uy, Initial residual = 0.284845, Final residual = 0.00273774, No Iterations 4
DILUPBiCGStab:  Solving for Uz, Initial residual = 0.197095, Final residual = 0.00135023, No Iterations 4
Pressure gradient source: uncorrected Ubar = 85.3719, pressure gradient = 27633.8
GAMG:  Solving for p, Initial residual = 0.184186, Final residual = 0.013565, No Iterations 4
time step continuity errors : sum local = 4.05943e-13, global = 2.23771e-13, cumulative = 2.2246e-12
Pressure gradient source: uncorrected Ubar = 85.3927, pressure gradient = 20367
DILUPBiCGStab:  Solving for omega, Initial residual = 3.75393e-08, Final residual = 1.87006e-10, No Iterations 2
DILUPBiCGStab:  Solving for k, Initial residual = 0.00609933, Final residual = 5.09069e-05, No Iterations 2
bounding k, min: 0 max: 26.1794 average: 3.83775
ExecutionTime = 1.21 s  ClockTime = 8 s

Time = 61

DILUPBiCGStab:  Solving for Ux, Initial residual = 0.00122794, Final residual = 1.12202e-05, No Iterations 3
DILUPBiCGStab:  Solving for Uy, Initial residual = 0.257902, Final residual = 0.00161415, No Iterations 4
DILUPBiCGStab:  Solving for Uz, Initial residual = 0.297312, Final residual = 0.0020315, No Iterations 4
Pressure gradient source: uncorrected Ubar = 85.3734, pressure gradient = 28168.2
GAMG:  Solving for p, Initial residual = 0.186383, Final residual = 0.0159179, No Iterations 4
time step continuity errors : sum local = 3.13526e-13, global = 5.87105e-14, cumulative = 2.28331e-12
Pressure gradient source: uncorrected Ubar = 85.3928, pressure gradient = 21162.7
DILUPBiCGStab:  Solving for omega, Initial residual = 3.56338e-08, Final residual = 1.76298e-10, No Iterations 2
DILUPBiCGStab:  Solving for k, Initial residual = 0.00581175, Final residual = 4.91203e-05, No Iterations 2
bounding k, min: 0 max: 27.611 average: 4.16301
ExecutionTime = 1.23 s  ClockTime = 8 s

Time = 62

DILUPBiCGStab:  Solving for Ux, Initial residual = 0.00113406, Final residual = 9.62762e-06, No Iterations 3
DILUPBiCGStab:  Solving for Uy, Initial residual = 0.453605, Final residual = 0.00218681, No Iterations 4
DILUPBiCGStab:  Solving for Uz, Initial residual = 0.216877, Final residual = 0.00205756, No Iterations 4
Pressure gradient source: uncorrected Ubar = 85.3745, pressure gradient = 28796.4
GAMG:  Solving for p, Initial residual = 0.219371, Final residual = 0.0158664, No Iterations 4
time step continuity errors : sum local = 3.89579e-13, global = -1.73231e-13, cumulative = 2.11008e-12
Pressure gradient source: uncorrected Ubar = 85.3929, pressure gradient = 21960.6
DILUPBiCGStab:  Solving for omega, Initial residual = 3.39322e-08, Final residual = 1.65846e-10, No Iterations 2
DILUPBiCGStab:  Solving for k, Initial residual = 0.00555389, Final residual = 4.72172e-05, No Iterations 2
bounding k, min: 0 max: 29.0472 average: 4.49417
ExecutionTime = 1.25 s  ClockTime = 8 s

Time = 63

DILUPBiCGStab:  Solving for Ux, Initial residual = 0.00104685, Final residual = 8.074e-06, No Iterations 3
DILUPBiCGStab:  Solving for Uy, Initial residual = 0.338164, Final residual = 0.00297465, No Iterations 3
DILUPBiCGStab:  Solving for Uz, Initial residual = 0.335005, Final residual = 0.00270526, No Iterations 4
Pressure gradient source: uncorrected Ubar = 85.3758, pressure gradient = 29342.9
GAMG:  Solving for p, Initial residual = 0.169168, Final residual = 0.0128248, No Iterations 4
time step continuity errors : sum local = 3.56879e-13, global = -2.02012e-13, cumulative = 1.90806e-12
Pressure gradient source: uncorrected Ubar = 85.393, pressure gradient = 22748
DILUPBiCGStab:  Solving for omega, Initial residual = 3.22842e-08, Final residual = 1.54501e-10, No Iterations 2
DILUPBiCGStab:  Solving for k, Initial residual = 0.00531826, Final residual = 4.54994e-05, No Iterations 2
bounding k, min: 0 max: 30.4876 average: 4.83053
ExecutionTime = 1.27 s  ClockTime = 8 s

Time = 64

DILUPBiCGStab:  Solving for Ux, Initial residual = 0.000971784, Final residual = 6.82114e-06, No Iterations 3
DILUPBiCGStab:  Solving for Uy, Initial residual = 0.222899, Final residual = 0.00142315, No Iterations 3
DILUPBiCGStab:  Solving for Uz, Initial residual = 0.156916, Final residual = 0.000959542, No Iterations 4
Pressure gradient source: uncorrected Ubar = 85.3769, pressure gradient = 29968
GAMG:  Solving for p, Initial residual = 0.178323, Final residual = 0.0140771, No Iterations 4
time step continuity errors : sum local = 7.59608e-13, global = -6.46595e-13, cumulative = 1.26147e-12
Pressure gradient source: uncorrected Ubar = 85.393, pressure gradient = 23533.7
DILUPBiCGStab:  Solving for omega, Initial residual = 3.06919e-08, Final residual = 1.36965e-10, No Iterations 2
DILUPBiCGStab:  Solving for k, Initial residual = 0.00510854, Final residual = 4.38623e-05, No Iterations 2
bounding k, min: 0 max: 31.917 average: 5.17177
ExecutionTime = 1.28 s  ClockTime = 8 s

Time = 65

DILUPBiCGStab:  Solving for Ux, Initial residual = 0.000898293, Final residual = 5.72635e-06, No Iterations 3
DILUPBiCGStab:  Solving for Uy, Initial residual = 0.304428, Final residual = 0.00114175, No Iterations 4
DILUPBiCGStab:  Solving for Uz, Initial residual = 0.203183, Final residual = 0.00153872, No Iterations 4
Pressure gradient source: uncorrected Ubar = 85.378, pressure gradient = 30522
GAMG:  Solving for p, Initial residual = 0.186428, Final residual = 0.0180245, No Iterations 3
time step continuity errors : sum local = 8.78654e-13, global = -4.96865e-13, cumulative = 7.64604e-13
Pressure gradient source: uncorrected Ubar = 85.3931, pressure gradient = 24308.4
DILUPBiCGStab:  Solving for omega, Initial residual = 2.93663e-08, Final residual = 1.19619e-10, No Iterations 2
DILUPBiCGStab:  Solving for k, Initial residual = 0.00491313, Final residual = 4.20844e-05, No Iterations 2
bounding k, min: 0 max: 33.3347 average: 5.51734
ExecutionTime = 1.3 s  ClockTime = 8 s

Time = 66

DILUPBiCGStab:  Solving for Ux, Initial residual = 0.000834292, Final residual = 4.68469e-06, No Iterations 3
DILUPBiCGStab:  Solving for Uy, Initial residual = 0.20611, Final residual = 0.000870693, No Iterations 4
DILUPBiCGStab:  Solving for Uz, Initial residual = 0.237184, Final residual = 0.00135097, No Iterations 4
Pressure gradient source: uncorrected Ubar = 85.379, pressure gradient = 31087
GAMG:  Solving for p, Initial residual = 0.193743, Final residual = 0.0141941, No Iterations 4
time step continuity errors : sum local = 6.03215e-13, global = -4.45702e-13, cumulative = 3.18902e-13
Pressure gradient source: uncorrected Ubar = 85.3932, pressure gradient = 25075.9
DILUPBiCGStab:  Solving for omega, Initial residual = 2.80713e-08, Final residual = 1.0327e-10, No Iterations 2
DILUPBiCGStab:  Solving for k, Initial residual = 0.00473176, Final residual = 4.03996e-05, No Iterations 2
bounding k, min: 0 max: 34.7393 average: 5.86665
ExecutionTime = 1.32 s  ClockTime = 8 s

Time = 67

DILUPBiCGStab:  Solving for Ux, Initial residual = 0.000780452, Final residual = 6.12912e-06, No Iterations 3
DILUPBiCGStab:  Solving for Uy, Initial residual = 0.385162, Final residual = 0.00318688, No Iterations 3
DILUPBiCGStab:  Solving for Uz, Initial residual = 0.281946, Final residual = 0.00191805, No Iterations 4
Pressure gradient source: uncorrected Ubar = 85.3797, pressure gradient = 31758.5
GAMG:  Solving for p, Initial residual = 0.179598, Final residual = 0.0163662, No Iterations 3
time step continuity errors : sum local = 5.0835e-13, global = -4.60789e-13, cumulative = -1.41887e-13
Pressure gradient source: uncorrected Ubar = 85.3933, pressure gradient = 25827.4
DILUPBiCGStab:  Solving for omega, Initial residual = 2.68572e-08, Final residual = 9.01204e-11, No Iterations 2
DILUPBiCGStab:  Solving for k, Initial residual = 0.00456608, Final residual = 3.88679e-05, No Iterations 2
bounding k, min: 0 max: 36.1303 average: 6.21935
ExecutionTime = 1.34 s  ClockTime = 8 s

Time = 68

DILUPBiCGStab:  Solving for Ux, Initial residual = 0.000732882, Final residual = 4.66671e-06, No Iterations 3
DILUPBiCGStab:  Solving for Uy, Initial residual = 0.281816, Final residual = 0.00105466, No Iterations 4
DILUPBiCGStab:  Solving for Uz, Initial residual = 0.320032, Final residual = 0.00138688, No Iterations 4
Pressure gradient source: uncorrected Ubar = 85.3811, pressure gradient = 32079.7
GAMG:  Solving for p, Initial residual = 0.154309, Final residual = 0.0136977, No Iterations 3
time step continuity errors : sum local = 7.92201e-13, global = -6.66698e-13, cumulative = -8.08586e-13
Pressure gradient source: uncorrected Ubar = 85.3934, pressure gradient = 26553.2
DILUPBiCGStab:  Solving for omega, Initial residual = 2.59095e-08, Final residual = 8.12526e-11, No Iterations 2
DILUPBiCGStab:  Solving for k, Initial residual = 0.00441203, Final residual = 3.72887e-05, No Iterations 2
bounding k, min: 0 max: 37.508 average: 6.57511
ExecutionTime = 1.37 s  ClockTime = 8 s

Time = 69

DILUPBiCGStab:  Solving for Ux, Initial residual = 0.000695156, Final residual = 3.74797e-06, No Iterations 3
DILUPBiCGStab:  Solving for Uy, Initial residual = 0.168164, Final residual = 0.00144164, No Iterations 3
DILUPBiCGStab:  Solving for Uz, Initial residual = 0.2059, Final residual = 0.00178726, No Iterations 3
Pressure gradient source: uncorrected Ubar = 85.3824, pressure gradient = 32429.7
GAMG:  Solving for p, Initial residual = 0.156281, Final residual = 0.00922959, No Iterations 4
time step continuity errors : sum local = 7.10549e-13, global = -6.04224e-13, cumulative = -1.41281e-12
Pressure gradient source: uncorrected Ubar = 85.3935, pressure gradient = 27263.1
DILUPBiCGStab:  Solving for omega, Initial residual = 2.50475e-08, Final residual = 7.52208e-11, No Iterations 2
DILUPBiCGStab:  Solving for k, Initial residual = 0.00426907, Final residual = 3.56713e-05, No Iterations 2
bounding k, min: 0 max: 38.8726 average: 6.93361
ExecutionTime = 1.39 s  ClockTime = 8 s

Time = 70

DILUPBiCGStab:  Solving for Ux, Initial residual = 0.000663541, Final residual = 3.47427e-06, No Iterations 3
DILUPBiCGStab:  Solving for Uy, Initial residual = 0.181118, Final residual = 0.000953068, No Iterations 3
DILUPBiCGStab:  Solving for Uz, Initial residual = 0.258921, Final residual = 0.00116068, No Iterations 3
Pressure gradient source: uncorrected Ubar = 85.3835, pressure gradient = 32800.1
GAMG:  Solving for p, Initial residual = 0.186564, Final residual = 0.0130464, No Iterations 4
[...]
DILUPBiCGStab:  Solving for Uz, Initial residual = 0.232449, Final residual = 0.00219569, No Iterations 2
Pressure gradient source: uncorrected Ubar = 85.395, pressure gradient = 52953.2
GAMG:  Solving for p, Initial residual = 0.141513, Final residual = 0.0104104, No Iterations 5
time step continuity errors : sum local = 4.85862e-13, global = -2.50897e-13, cumulative = -1.19909e-11
Pressure gradient source: uncorrected Ubar = 85.395, pressure gradient = 52941.3
DILUPBiCGStab:  Solving for omega, Initial residual = 8.33301e-11, Final residual = 5.50343e-13, No Iterations 2
DILUPBiCGStab:  Solving for k, Initial residual = 6.11595e-06, Final residual = 4.39675e-08, No Iterations 2
bounding k, min: 0 max: 77.7257 average: 26.6719
ExecutionTime = 7.49 s  ClockTime = 14 s

Time = 387

DILUPBiCGStab:  Solving for Ux, Initial residual = 3.25811e-06, Final residual = 2.01956e-08, No Iterations 2
DILUPBiCGStab:  Solving for Uy, Initial residual = 0.16994, Final residual = 0.000441143, No Iterations 3
DILUPBiCGStab:  Solving for Uz, Initial residual = 0.241331, Final residual = 0.00170734, No Iterations 2
Pressure gradient source: uncorrected Ubar = 85.395, pressure gradient = 52954.4
GAMG:  Solving for p, Initial residual = 0.143735, Final residual = 0.0111894, No Iterations 5
time step continuity errors : sum local = 2.31146e-13, global = -8.80152e-14, cumulative = -1.2079e-11
Pressure gradient source: uncorrected Ubar = 85.395, pressure gradient = 52942.7
DILUPBiCGStab:  Solving for omega, Initial residual = 8.03292e-11, Final residual = 5.3675e-13, No Iterations 2
DILUPBiCGStab:  Solving for k, Initial residual = 6.06078e-06, Final residual = 4.36247e-08, No Iterations 2
bounding k, min: 0 max: 77.7302 average: 26.6722
ExecutionTime = 7.51 s  ClockTime = 14 s

Time = 388

DILUPBiCGStab:  Solving for Ux, Initial residual = 3.13134e-06, Final residual = 1.93802e-08, No Iterations 2
DILUPBiCGStab:  Solving for Uy, Initial residual = 0.398865, Final residual = 0.00111806, No Iterations 3
DILUPBiCGStab:  Solving for Uz, Initial residual = 0.408682, Final residual = 0.00384514, No Iterations 2
Pressure gradient source: uncorrected Ubar = 85.395, pressure gradient = 52955.6
GAMG:  Solving for p, Initial residual = 0.19147, Final residual = 0.0174959, No Iterations 4
time step continuity errors : sum local = 1.86206e-13, global = -3.41963e-14, cumulative = -1.21132e-11
Pressure gradient source: uncorrected Ubar = 85.395, pressure gradient = 52944.1
DILUPBiCGStab:  Solving for omega, Initial residual = 7.76655e-11, Final residual = 5.24403e-13, No Iterations 2
DILUPBiCGStab:  Solving for k, Initial residual = 6.00489e-06, Final residual = 4.32707e-08, No Iterations 2
bounding k, min: 0 max: 77.7347 average: 26.6725
ExecutionTime = 7.52 s  ClockTime = 14 s

Time = 389

DILUPBiCGStab:  Solving for Ux, Initial residual = 3.01041e-06, Final residual = 1.86103e-08, No Iterations 2
DILUPBiCGStab:  Solving for Uy, Initial residual = 0.353669, Final residual = 0.00334043, No Iterations 2
DILUPBiCGStab:  Solving for Uz, Initial residual = 0.203869, Final residual = 0.0016651, No Iterations 2
Pressure gradient source: uncorrected Ubar = 85.395, pressure gradient = 52956.8
GAMG:  Solving for p, Initial residual = 0.16348, Final residual = 0.0141881, No Iterations 5
time step continuity errors : sum local = 4.92229e-13, global = 3.14183e-13, cumulative = -1.1799e-11
Pressure gradient source: uncorrected Ubar = 85.395, pressure gradient = 52945.4
DILUPBiCGStab:  Solving for omega, Initial residual = 7.52324e-11, Final residual = 5.13126e-13, No Iterations 2
DILUPBiCGStab:  Solving for k, Initial residual = 5.94824e-06, Final residual = 4.29079e-08, No Iterations 2
bounding k, min: 0 max: 77.7391 average: 26.6728
ExecutionTime = 7.54 s  ClockTime = 14 s

Time = 390

DILUPBiCGStab:  Solving for Ux, Initial residual = 2.89588e-06, Final residual = 1.78839e-08, No Iterations 2
DILUPBiCGStab:  Solving for Uy, Initial residual = 0.443598, Final residual = 0.00289848, No Iterations 2
DILUPBiCGStab:  Solving for Uz, Initial residual = 0.248039, Final residual = 0.00155851, No Iterations 2
Pressure gradient source: uncorrected Ubar = 85.395, pressure gradient = 52957.9
GAMG:  Solving for p, Initial residual = 0.194019, Final residual = 0.0143673, No Iterations 5
time step continuity errors : sum local = 3.81858e-13, global = -1.39173e-13, cumulative = -1.19381e-11
Pressure gradient source: uncorrected Ubar = 85.395, pressure gradient = 52946.8
DILUPBiCGStab:  Solving for omega, Initial residual = 7.30795e-11, Final residual = 5.02883e-13, No Iterations 2
DILUPBiCGStab:  Solving for k, Initial residual = 5.89139e-06, Final residual = 4.25392e-08, No Iterations 2
bounding k, min: 0 max: 77.7434 average: 26.6731
ExecutionTime = 7.56 s  ClockTime = 14 s

Time = 391

DILUPBiCGStab:  Solving for Ux, Initial residual = 2.78779e-06, Final residual = 1.71992e-08, No Iterations 2
DILUPBiCGStab:  Solving for Uy, Initial residual = 0.392876, Final residual = 0.00328394, No Iterations 2
DILUPBiCGStab:  Solving for Uz, Initial residual = 0.406037, Final residual = 0.00191334, No Iterations 2
Pressure gradient source: uncorrected Ubar = 85.395, pressure gradient = 52959.1
GAMG:  Solving for p, Initial residual = 0.151074, Final residual = 0.0136387, No Iterations 4
time step continuity errors : sum local = 2.41639e-13, global = -1.17963e-13, cumulative = -1.20561e-11
Pressure gradient source: uncorrected Ubar = 85.395, pressure gradient = 52948.1
DILUPBiCGStab:  Solving for omega, Initial residual = 7.1122e-11, Final residual = 4.93396e-13, No Iterations 2
DILUPBiCGStab:  Solving for k, Initial residual = 5.83396e-06, Final residual = 4.21594e-08, No Iterations 2
bounding k, min: 0 max: 77.7477 average: 26.6735
ExecutionTime = 7.58 s  ClockTime = 14 s

Time = 392

DILUPBiCGStab:  Solving for Ux, Initial residual = 2.68599e-06, Final residual = 1.65575e-08, No Iterations 2
DILUPBiCGStab:  Solving for Uy, Initial residual = 0.281735, Final residual = 0.00246641, No Iterations 2
DILUPBiCGStab:  Solving for Uz, Initial residual = 0.33615, Final residual = 0.00212068, No Iterations 2
Pressure gradient source: uncorrected Ubar = 85.395, pressure gradient = 52960.3
GAMG:  Solving for p, Initial residual = 0.16342, Final residual = 0.0127014, No Iterations 5
time step continuity errors : sum local = 4.68777e-13, global = -3.14687e-13, cumulative = -1.23708e-11
Pressure gradient source: uncorrected Ubar = 85.395, pressure gradient = 52949.5
DILUPBiCGStab:  Solving for omega, Initial residual = 6.93832e-11, Final residual = 4.84671e-13, No Iterations 2
DILUPBiCGStab:  Solving for k, Initial residual = 5.77605e-06, Final residual = 4.17717e-08, No Iterations 2
bounding k, min: 0 max: 77.7519 average: 26.6738
ExecutionTime = 7.6 s  ClockTime = 14 s

Time = 393

DILUPBiCGStab:  Solving for Ux, Initial residual = 2.59008e-06, Final residual = 1.5976e-08, No Iterations 2
DILUPBiCGStab:  Solving for Uy, Initial residual = 0.335686, Final residual = 0.0025694, No Iterations 2
DILUPBiCGStab:  Solving for Uz, Initial residual = 0.336335, Final residual = 0.0022795, No Iterations 2
Pressure gradient source: uncorrected Ubar = 85.395, pressure gradient = 52961.5
GAMG:  Solving for p, Initial residual = 0.171696, Final residual = 0.0147311, No Iterations 4
time step continuity errors : sum local = 6.63164e-13, global = -4.0655e-13, cumulative = -1.27773e-11
Pressure gradient source: uncorrected Ubar = 85.395, pressure gradient = 52950.8
DILUPBiCGStab:  Solving for omega, Initial residual = 6.7777e-11, Final residual = 4.7659e-13, No Iterations 2
DILUPBiCGStab:  Solving for k, Initial residual = 5.71758e-06, Final residual = 4.13773e-08, No Iterations 2
bounding k, min: 0 max: 77.756 average: 26.6742
ExecutionTime = 7.62 s  ClockTime = 14 s

Time = 394

DILUPBiCGStab:  Solving for Ux, Initial residual = 2.49962e-06, Final residual = 1.54335e-08, No Iterations 2
DILUPBiCGStab:  Solving for Uy, Initial residual = 0.281264, Final residual = 0.0021286, No Iterations 2
DILUPBiCGStab:  Solving for Uz, Initial residual = 0.26576, Final residual = 0.00118679, No Iterations 2
Pressure gradient source: uncorrected Ubar = 85.395, pressure gradient = 52962.6
GAMG:  Solving for p, Initial residual = 0.172062, Final residual = 0.0142401, No Iterations 5
time step continuity errors : sum local = 3.10067e-13, global = -1.18914e-13, cumulative = -1.28963e-11
Pressure gradient source: uncorrected Ubar = 85.395, pressure gradient = 52952.1
DILUPBiCGStab:  Solving for omega, Initial residual = 6.63384e-11, Final residual = 4.6888e-13, No Iterations 2
DILUPBiCGStab:  Solving for k, Initial residual = 5.65844e-06, Final residual = 4.09753e-08, No Iterations 2
bounding k, min: 0 max: 77.76 average: 26.6746
ExecutionTime = 7.64 s  ClockTime = 14 s

Time = 395

DILUPBiCGStab:  Solving for Ux, Initial residual = 2.41459e-06, Final residual = 1.49161e-08, No Iterations 2
DILUPBiCGStab:  Solving for Uy, Initial residual = 0.356096, Final residual = 0.000872956, No Iterations 3
DILUPBiCGStab:  Solving for Uz, Initial residual = 0.334497, Final residual = 0.00309411, No Iterations 2
Pressure gradient source: uncorrected Ubar = 85.395, pressure gradient = 52963.8
GAMG:  Solving for p, Initial residual = 0.185146, Final residual = 0.013627, No Iterations 4
time step continuity errors : sum local = 8.02556e-13, global = -5.02506e-13, cumulative = -1.33988e-11
Pressure gradient source: uncorrected Ubar = 85.395, pressure gradient = 52953.4
DILUPBiCGStab:  Solving for omega, Initial residual = 6.49892e-11, Final residual = 4.61198e-13, No Iterations 2
DILUPBiCGStab:  Solving for k, Initial residual = 5.59894e-06, Final residual = 4.05642e-08, No Iterations 2
bounding k, min: 0 max: 77.764 average: 26.675
ExecutionTime = 7.65 s  ClockTime = 14 s

Time = 396

DILUPBiCGStab:  Solving for Ux, Initial residual = 2.33364e-06, Final residual = 1.44227e-08, No Iterations 2
DILUPBiCGStab:  Solving for Uy, Initial residual = 0.34783, Final residual = 0.00253219, No Iterations 2
DILUPBiCGStab:  Solving for Uz, Initial residual = 0.327573, Final residual = 0.00234656, No Iterations 2
Pressure gradient source: uncorrected Ubar = 85.395, pressure gradient = 52964.9
GAMG:  Solving for p, Initial residual = 0.160417, Final residual = 0.0114562, No Iterations 5
time step continuity errors : sum local = 4.68852e-13, global = -3.1468e-13, cumulative = -1.37134e-11
Pressure gradient source: uncorrected Ubar = 85.395, pressure gradient = 52954.7
DILUPBiCGStab:  Solving for omega, Initial residual = 6.37321e-11, Final residual = 4.53351e-13, No Iterations 2
DILUPBiCGStab:  Solving for k, Initial residual = 5.53889e-06, Final residual = 4.01454e-08, No Iterations 2
bounding k, min: 0 max: 77.7679 average: 26.6754
ExecutionTime = 7.68 s  ClockTime = 14 s

Time = 397

DILUPBiCGStab:  Solving for Ux, Initial residual = 2.25637e-06, Final residual = 1.39527e-08, No Iterations 2
DILUPBiCGStab:  Solving for Uy, Initial residual = 0.21297, Final residual = 0.0018261, No Iterations 2
DILUPBiCGStab:  Solving for Uz, Initial residual = 0.261138, Final residual = 0.0014611, No Iterations 2
Pressure gradient source: uncorrected Ubar = 85.395, pressure gradient = 52966
GAMG:  Solving for p, Initial residual = 0.136753, Final residual = 0.0119511, No Iterations 4
time step continuity errors : sum local = 4.85221e-13, global = -2.87005e-13, cumulative = -1.40004e-11
Pressure gradient source: uncorrected Ubar = 85.395, pressure gradient = 52956
DILUPBiCGStab:  Solving for omega, Initial residual = 6.25215e-11, Final residual = 4.45294e-13, No Iterations 2
DILUPBiCGStab:  Solving for k, Initial residual = 5.47831e-06, Final residual = 3.97208e-08, No Iterations 2
bounding k, min: 0 max: 77.7717 average: 26.6758
ExecutionTime = 7.7 s  ClockTime = 14 s

Time = 398

DILUPBiCGStab:  Solving for Ux, Initial residual = 2.18299e-06, Final residual = 1.35162e-08, No Iterations 2
DILUPBiCGStab:  Solving for Uy, Initial residual = 0.263601, Final residual = 0.00168648, No Iterations 2
DILUPBiCGStab:  Solving for Uz, Initial residual = 0.237211, Final residual = 0.00146261, No Iterations 2
Pressure gradient source: uncorrected Ubar = 85.395, pressure gradient = 52967.1
GAMG:  Solving for p, Initial residual = 0.174712, Final residual = 0.0155782, No Iterations 5
time step continuity errors : sum local = 3.50589e-13, global = 9.15332e-14, cumulative = -1.39089e-11
Pressure gradient source: uncorrected Ubar = 85.395, pressure gradient = 52957.2
DILUPBiCGStab:  Solving for omega, Initial residual = 6.13991e-11, Final residual = 4.37322e-13, No Iterations 2
DILUPBiCGStab:  Solving for k, Initial residual = 5.417e-06, Final residual = 3.92903e-08, No Iterations 2
bounding k, min: 0 max: 77.7754 average: 26.6762
ExecutionTime = 7.72 s  ClockTime = 14 s

Time = 399

DILUPBiCGStab:  Solving for Ux, Initial residual = 2.11341e-06, Final residual = 1.31076e-08, No Iterations 2
DILUPBiCGStab:  Solving for Uy, Initial residual = 0.448887, Final residual = 0.00413377, No Iterations 2
DILUPBiCGStab:  Solving for Uz, Initial residual = 0.313013, Final residual = 0.0013939, No Iterations 2
Pressure gradient source: uncorrected Ubar = 85.395, pressure gradient = 52968.2
GAMG:  Solving for p, Initial residual = 0.164203, Final residual = 0.0125282, No Iterations 4
time step continuity errors : sum local = 4.2793e-13, global = -3.37411e-13, cumulative = -1.42463e-11
Pressure gradient source: uncorrected Ubar = 85.395, pressure gradient = 52958.5
DILUPBiCGStab:  Solving for omega, Initial residual = 6.03847e-11, Final residual = 4.29363e-13, No Iterations 2
DILUPBiCGStab:  Solving for k, Initial residual = 5.35514e-06, Final residual = 3.88556e-08, No Iterations 2
bounding k, min: 0 max: 77.7791 average: 26.6766
ExecutionTime = 7.74 s  ClockTime = 14 s

Time = 400

DILUPBiCGStab:  Solving for Ux, Initial residual = 2.04759e-06, Final residual = 1.27289e-08, No Iterations 2
DILUPBiCGStab:  Solving for Uy, Initial residual = 0.405308, Final residual = 0.00375795, No Iterations 2
DILUPBiCGStab:  Solving for Uz, Initial residual = 0.24726, Final residual = 0.00234313, No Iterations 2
Pressure gradient source: uncorrected Ubar = 85.395, pressure gradient = 52969.3
GAMG:  Solving for p, Initial residual = 0.154809, Final residual = 0.0147411, No Iterations 5
time step continuity errors : sum local = 4.73092e-13, global = -2.75173e-13, cumulative = -1.45215e-11
Pressure gradient source: uncorrected Ubar = 85.395, pressure gradient = 52959.7
DILUPBiCGStab:  Solving for omega, Initial residual = 5.94317e-11, Final residual = 4.21299e-13, No Iterations 2
DILUPBiCGStab:  Solving for k, Initial residual = 5.29274e-06, Final residual = 3.84113e-08, No Iterations 2
bounding k, min: 0 max: 77.7827 average: 26.6771
ExecutionTime = 7.77 s  ClockTime = 15 s

Time = 401

DILUPBiCGStab:  Solving for Ux, Initial residual = 1.98485e-06, Final residual = 1.23763e-08, No Iterations 2
DILUPBiCGStab:  Solving for Uy, Initial residual = 0.32128, Final residual = 0.000893982, No Iterations 3
DILUPBiCGStab:  Solving for Uz, Initial residual = 0.295942, Final residual = 0.0029385, No Iterations 2
Pressure gradient source: uncorrected Ubar = 85.395, pressure gradient = 52970.4
GAMG:  Solving for p, Initial residual = 0.157717, Final residual = 0.0124131, No Iterations 4
time step continuity errors : sum local = 3.49763e-13, global = 3.24435e-14, cumulative = -1.44891e-11
Pressure gradient source: uncorrected Ubar = 85.395, pressure gradient = 52961
DILUPBiCGStab:  Solving for omega, Initial residual = 5.85189e-11, Final residual = 4.13017e-13, No Iterations 2
DILUPBiCGStab:  Solving for k, Initial residual = 5.22971e-06, Final residual = 3.79595e-08, No Iterations 2
bounding k, min: 0 max: 77.7863 average: 26.6775
ExecutionTime = 7.79 s  ClockTime = 15 s

Time = 402

DILUPBiCGStab:  Solving for Ux, Initial residual = 1.92569e-06, Final residual = 1.20517e-08, No Iterations 2
DILUPBiCGStab:  Solving for Uy, Initial residual = 0.274796, Final residual = 0.002462, No Iterations 2
DILUPBiCGStab:  Solving for Uz, Initial residual = 0.233054, Final residual = 0.00206594, No Iterations 2
Pressure gradient source: uncorrected Ubar = 85.395, pressure gradient = 52971.4
GAMG:  Solving for p, Initial residual = 0.13646, Final residual = 0.0101791, No Iterations 5
time step continuity errors : sum local = 2.40293e-13, global = -1.26483e-13, cumulative = -1.46155e-11
Pressure gradient source: uncorrected Ubar = 85.395, pressure gradient = 52962.2
DILUPBiCGStab:  Solving for omega, Initial residual = 5.76333e-11, Final residual = 4.04399e-13, No Iterations 2
DILUPBiCGStab:  Solving for k, Initial residual = 5.16632e-06, Final residual = 3.75066e-08, No Iterations 2
bounding k, min: 0 max: 77.7897 average: 26.678
ExecutionTime = 7.81 s  ClockTime = 15 s

Time = 403

DILUPBiCGStab:  Solving for Ux, Initial residual = 1.86882e-06, Final residual = 1.17475e-08, No Iterations 2
DILUPBiCGStab:  Solving for Uy, Initial residual = 0.286924, Final residual = 0.00240787, No Iterations 2
DILUPBiCGStab:  Solving for Uz, Initial residual = 0.156024, Final residual = 0.00103298, No Iterations 2
Pressure gradient source: uncorrected Ubar = 85.395, pressure gradient = 52972.5
GAMG:  Solving for p, Initial residual = 0.156482, Final residual = 0.0144488, No Iterations 4
time step continuity errors : sum local = 3.27061e-13, global = 7.62348e-14, cumulative = -1.45393e-11
Pressure gradient source: uncorrected Ubar = 85.395, pressure gradient = 52963.4
DILUPBiCGStab:  Solving for omega, Initial residual = 5.67771e-11, Final residual = 3.95443e-13, No Iterations 2
DILUPBiCGStab:  Solving for k, Initial residual = 5.10239e-06, Final residual = 3.70478e-08, No Iterations 2
bounding k, min: 0 max: 77.7931 average: 26.6784
ExecutionTime = 7.83 s  ClockTime = 15 s

Time = 404

DILUPBiCGStab:  Solving for Ux, Initial residual = 1.81504e-06, Final residual = 1.14599e-08, No Iterations 2
DILUPBiCGStab:  Solving for Uy, Initial residual = 0.41678, Final residual = 0.00105179, No Iterations 3
DILUPBiCGStab:  Solving for Uz, Initial residual = 0.310838, Final residual = 0.00199187, No Iterations 2
Pressure gradient source: uncorrected Ubar = 85.395, pressure gradient = 52973.5
GAMG:  Solving for p, Initial residual = 0.196036, Final residual = 0.014861, No Iterations 4
time step continuity errors : sum local = 5.43815e-13, global = 2.31371e-13, cumulative = -1.43079e-11
Pressure gradient source: uncorrected Ubar = 85.395, pressure gradient = 52964.6
DILUPBiCGStab:  Solving for omega, Initial residual = 5.59796e-11, Final residual = 3.86237e-13, No Iterations 2
DILUPBiCGStab:  Solving for k, Initial residual = 5.03802e-06, Final residual = 3.65829e-08, No Iterations 2
bounding k, min: 0 max: 77.7965 average: 26.6789
ExecutionTime = 7.86 s  ClockTime = 15 s

Time = 405

DILUPBiCGStab:  Solving for Ux, Initial residual = 1.76392e-06, Final residual = 1.11818e-08, No Iterations 2
DILUPBiCGStab:  Solving for Uy, Initial residual = 0.427594, Final residual = 0.00275102, No Iterations 2
DILUPBiCGStab:  Solving for Uz, Initial residual = 0.41817, Final residual = 0.00394365, No Iterations 2
Pressure gradient source: uncorrected Ubar = 85.395, pressure gradient = 52974.5
GAMG:  Solving for p, Initial residual = 0.18931, Final residual = 0.0149074, No Iterations 4
time step continuity errors : sum local = 9.00054e-13, global = 7.31619e-13, cumulative = -1.35763e-11
Pressure gradient source: uncorrected Ubar = 85.395, pressure gradient = 52965.7
DILUPBiCGStab:  Solving for omega, Initial residual = 5.52269e-11, Final residual = 3.76669e-13, No Iterations 2
DILUPBiCGStab:  Solving for k, Initial residual = 4.97327e-06, Final residual = 3.61145e-08, No Iterations 2
bounding k, min: 0 max: 77.7997 average: 26.6794
ExecutionTime = 7.88 s  ClockTime = 15 s


SIMPLE solution converged in 405 iterations

End

